####################################################################### 
# 
# This file contains crystal structure data downloaded from the 
# Cambridge Structural Database (CSD) hosted by the Cambridge 
# Crystallographic Data Centre (CCDC).
# 
# Full information about CCDC data access policies and citation 
# guidelines are available at http://www.ccdc.cam.ac.uk/access/V1 
# 
# Audit and citation data items may have been added by the CCDC. 
# Please retain this information to preserve the provenance of 
# this file and to allow appropriate attribution of the data. 
# 
#######################################################################

data_l15_053mono_sq
_audit_block_doi                 10.5517/ccdc.csd.cc1mw1n6
_database_code_depnum_ccdc_archive 'CCDC 1515548'
loop_
_citation_id
_citation_doi
_citation_year
1 10.1021/acs.chemmater.6b05277 2017
_audit_update_record             
;
2016-11-08 deposited with the CCDC.	2023-04-06 downloaded from the CCDC.
;

_audit_creation_method           SHELXL-2014/7
_shelx_SHELXL_version_number     2014/7
_chemical_name_systematic        ?
_chemical_name_common            ?
_chemical_melting_point          ?
_chemical_formula_moiety         ?
_chemical_formula_sum            'C57 H36 N12 Ni3 O18'
_chemical_formula_weight         1353.11

loop_
_atom_type_symbol
_atom_type_description
_atom_type_scat_dispersion_real
_atom_type_scat_dispersion_imag
_atom_type_scat_source
C C 0.0033 0.0016 'International Tables Vol C Tables 4.2.6.8 and 6.1.1.4'
H H 0.0000 0.0000 'International Tables Vol C Tables 4.2.6.8 and 6.1.1.4'
N N 0.0061 0.0033 'International Tables Vol C Tables 4.2.6.8 and 6.1.1.4'
O O 0.0106 0.0060 'International Tables Vol C Tables 4.2.6.8 and 6.1.1.4'
Ni Ni 0.3393 1.1124 'International Tables Vol C Tables 4.2.6.8 and 6.1.1.4'

_space_group_crystal_system      monoclinic
_space_group_IT_number           8
_space_group_name_H-M_alt        'C m'
_space_group_name_Hall           'C -2y'

_shelx_space_group_comment       
;
The symmetry employed for this shelxl refinement is uniquely defined
by the following loop, which should always be used as a source of
symmetry information in preference to the above space-group names.
They are only intended as comments.
;

loop_
_space_group_symop_operation_xyz
'x, y, z'
'x, -y, z'
'x+1/2, y+1/2, z'
'x+1/2, -y+1/2, z'

_cell_length_a                   16.384(3)
_cell_length_b                   28.376(6)
_cell_length_c                   13.079(3)
_cell_angle_alpha                90
_cell_angle_beta                 95.57(3)
_cell_angle_gamma                90
_cell_volume                     6052(2)
_cell_formula_units_Z            2
_cell_measurement_temperature    173(2)
_cell_measurement_reflns_used    7852
_cell_measurement_theta_min      3.005
_cell_measurement_theta_max      24.000

_exptl_crystal_description       plate
_exptl_crystal_colour            orange
_exptl_crystal_density_meas      ?
_exptl_crystal_density_method    ?
_exptl_crystal_density_diffrn    0.743
_exptl_crystal_F_000             1380
_exptl_transmission_factor_min   ?
_exptl_transmission_factor_max   ?
_exptl_crystal_size_max          0.300
_exptl_crystal_size_mid          0.290
_exptl_crystal_size_min          0.100
_exptl_absorpt_coefficient_mu    0.503
_exptl_absorpt_correction_type   multi-scan
_exptl_absorpt_correction_T_min  0.864
_exptl_absorpt_correction_T_max  0.951
_exptl_absorpt_process_details   'Rigaku Rapid Auto'
_exptl_absorpt_special_details   ?
_diffrn_ambient_temperature      173(2)
_diffrn_radiation_wavelength     0.71073
_diffrn_radiation_type           MoK\a
_diffrn_source                   'fine-focus sealed tube'
_diffrn_measurement_device_type  'imaging plate'
_diffrn_measurement_method       'omega scans'
_diffrn_detector_area_resol_mean ?
_diffrn_reflns_number            18603
_diffrn_reflns_av_unetI/netI     0.2351
_diffrn_reflns_av_R_equivalents  0.2363
_diffrn_reflns_limit_h_min       -18
_diffrn_reflns_limit_h_max       18
_diffrn_reflns_limit_k_min       -32
_diffrn_reflns_limit_k_max       32
_diffrn_reflns_limit_l_min       -14
_diffrn_reflns_limit_l_max       14
_diffrn_reflns_theta_min         3.005
_diffrn_reflns_theta_max         24.000
_diffrn_reflns_theta_full        24.000
_diffrn_measured_fraction_theta_max 0.993
_diffrn_measured_fraction_theta_full 0.993
_diffrn_reflns_Laue_measured_fraction_max 0.993
_diffrn_reflns_Laue_measured_fraction_full 0.993
_diffrn_reflns_point_group_measured_fraction_max 0.993
_diffrn_reflns_point_group_measured_fraction_full 0.993
_reflns_number_total             8954
_reflns_number_gt                3897
_reflns_threshold_expression     'I > 2\s(I)'
_reflns_Friedel_coverage         0.997
_reflns_Friedel_fraction_max     0.993
_reflns_Friedel_fraction_full    0.993

_reflns_special_details          
;
 Reflections were merged by SHELXL according to the crystal
 class for the calculation of statistics and refinement.
 
 Structure factors included contributions from the .fab file.
 
 _reflns_Friedel_fraction is defined as the number of unique
 Friedel pairs measured divided by the number that would be
 possible theoretically, ignoring centric projections and
 systematic absences.
;

_computing_data_collection       'Rigaku Rapid Auto'
_computing_cell_refinement       'Rigaku Rapid Auto'
_computing_data_reduction        'Rigaku Rapid Auto'
_computing_structure_solution    SHELXS
_computing_structure_refinement  SHELXL
_computing_molecular_graphics    'Diamond 3'
_computing_publication_material  WinGX
_refine_special_details          
;
 Refined as a 2-component inversion twin.
;
_refine_ls_structure_factor_coef Fsqd
_refine_ls_matrix_type           full
_refine_ls_weighting_scheme      calc
_refine_ls_weighting_details     
'w=1/[\s^2^(Fo^2^)+(0.2000P)^2^] where P=(Fo^2^+2Fc^2^)/3'
_atom_sites_solution_primary     ?
_atom_sites_solution_secondary   ?
_atom_sites_solution_hydrogens   geom
_refine_ls_hydrogen_treatment    constr
_refine_ls_extinction_method     none
_refine_ls_extinction_coef       .
_refine_ls_abs_structure_details 
;
 Refined as an inversion twin.
;
_refine_ls_abs_structure_Flack   0.30(7)
_chemical_absolute_configuration ?
_refine_ls_number_reflns         8954
_refine_ls_number_parameters     386
_refine_ls_number_restraints     542
_refine_ls_R_factor_all          0.2243
_refine_ls_R_factor_gt           0.1322
_refine_ls_wR_factor_ref         0.3923
_refine_ls_wR_factor_gt          0.3130
_refine_ls_goodness_of_fit_ref   1.016
_refine_ls_restrained_S_all      1.049
_refine_ls_shift/su_max          0.001
_refine_ls_shift/su_mean         0.000

loop_
_atom_site_label
_atom_site_type_symbol
_atom_site_fract_x
_atom_site_fract_y
_atom_site_fract_z
_atom_site_U_iso_or_equiv
_atom_site_adp_type
_atom_site_occupancy
_atom_site_site_symmetry_order
_atom_site_calc_flag
_atom_site_refinement_flags_posn
_atom_site_refinement_flags_adp
_atom_site_refinement_flags_occupancy
_atom_site_disorder_assembly
_atom_site_disorder_group
Ni1 Ni 0.52179(16) 0.66060(9) 0.5122(3) 0.0777(12) Uani 1 1 d . . . . .
Ni2 Ni 0.50204(18) 1.0000 0.5120(3) 0.0658(14) Uani 1 2 d S T P . .
O1 O 0.5728(7) 0.7217(4) 0.5072(12) 0.064(4) Uani 1 1 d . . . . .
O2 O 0.4811(10) 0.7808(7) 0.5128(18) 0.121(7) Uani 1 1 d . U . . .
O3 O 0.5695(8) 0.9425(5) 0.5108(11) 0.061(4) Uani 1 1 d . U . . .
O4 O 0.7012(11) 0.9610(6) 0.518(2) 0.136(7) Uani 1 1 d . U . . .
O5 O 0.8989(9) 0.8347(5) 0.5147(13) 0.074(4) Uani 1 1 d . U . . .
O6 O 0.8635(10) 0.7609(6) 0.514(2) 0.137(8) Uani 1 1 d . U . . .
C1 C 0.6192(6) 0.7993(3) 0.5088(8) 0.033(3) Uani 1 1 d G U . . .
C2 C 0.5990(5) 0.8469(3) 0.5092(8) 0.035(3) Uani 1 1 d G U . . .
H2 H 0.5433 0.8563 0.5086 0.042 Uiso 1 1 calc R U . . .
C3 C 0.6604(7) 0.8808(3) 0.5103(9) 0.043(4) Uani 1 1 d DG U . . .
C4 C 0.7419(6) 0.8671(3) 0.5112(9) 0.049(4) Uani 1 1 d G U . . .
H4 H 0.7838 0.8903 0.5120 0.058 Uiso 1 1 calc R U . . .
C5 C 0.7621(5) 0.8195(4) 0.5108(9) 0.045(4) Uani 1 1 d DG U . . .
C6 C 0.7007(6) 0.7856(3) 0.5097(9) 0.036(3) Uani 1 1 d G U . . .
H6 H 0.7145 0.7531 0.5095 0.043 Uiso 1 1 calc R U . . .
C7 C 0.5587(17) 0.7639(9) 0.5094(16) 0.087(8) Uani 1 1 d . U . . .
C8 C 0.6405(17) 0.9285(7) 0.5124(16) 0.083(8) Uani 1 1 d D U . . .
C9 C 0.8489(12) 0.8034(7) 0.5125(19) 0.072(7) Uani 1 1 d D U . . .
O7 O 0.3942(7) 0.9626(4) 0.5189(11) 0.052(3) Uani 1 1 d D U . . .
O8 O 0.1339(8) 0.8770(4) 0.5129(12) 0.058(4) Uani 1 1 d D U . . .
O9 O 0.0192(9) 0.9136(4) 0.5153(14) 0.075(4) Uani 1 1 d D U . . .
C10 C 0.3549(11) 1.0000 0.5146(16) 0.024(4) Uani 1 2 d DS TU P . .
C11 C 0.2676(11) 1.0000 0.5178(15) 0.022(4) Uani 1 2 d DS TU P . .
C12 C 0.2263(9) 0.9601(5) 0.5191(11) 0.029(3) Uani 1 1 d . U . . .
H12 H 0.2567 0.9315 0.5241 0.035 Uiso 1 1 calc R U . . .
C13 C 0.1375(10) 0.9570(5) 0.5135(12) 0.034(3) Uani 1 1 d D U . . .
C14 C 0.1000(14) 1.0000 0.5153(16) 0.030(4) Uani 1 2 d S TU P . .
H14 H 0.0423 1.0000 0.5181 0.036 Uiso 1 2 calc R U P . .
C15 C 0.0955(10) 0.9128(6) 0.5146(14) 0.051(4) Uani 1 1 d D U . . .
N1A N 0.5367(12) 0.6596(5) 0.6656(13) 0.081(6) Uani 1 1 d G U . . .
C1A C 0.6009(12) 0.6826(7) 0.722(2) 0.148(10) Uani 1 1 d G U . . .
H1A H 0.6410 0.6989 0.6884 0.178 Uiso 1 1 calc R U . . .
C2A C 0.6065(16) 0.6815(9) 0.829(2) 0.179(11) Uani 1 1 d G U . . .
H2A H 0.6504 0.6972 0.8680 0.215 Uiso 1 1 calc R U . . .
C3A C 0.548(2) 0.6576(10) 0.8790(13) 0.178(11) Uani 1 1 d DG U . . .
C4A C 0.4836(17) 0.6347(9) 0.8221(18) 0.165(11) Uani 1 1 d G U . . .
H4A H 0.4434 0.6183 0.8562 0.198 Uiso 1 1 calc R U . . .
C5A C 0.4780(12) 0.6357(7) 0.7154(18) 0.130(9) Uani 1 1 d G U . . .
H5A H 0.4341 0.6200 0.6765 0.156 Uiso 1 1 calc R U . . .
N3A N 0.562(2) 0.6647(13) 0.991(2) 0.202(13) Uani 1 1 d D U . . .
N4A N 0.493(2) 0.6598(13) 1.031(2) 0.198(13) Uani 1 1 d D U . . .
N2A N 0.5087(13) 0.6617(6) 1.3552(13) 0.089(6) Uani 1 1 d G U . . .
C6A C 0.5700(12) 0.6814(7) 1.3024(19) 0.136(9) Uani 1 1 d G U . . .
H6A H 0.6155 0.6966 1.3392 0.163 Uiso 1 1 calc R U . . .
C7A C 0.5647(17) 0.6789(9) 1.196(2) 0.167(11) Uani 1 1 d G U . . .
H7A H 0.6066 0.6924 1.1598 0.200 Uiso 1 1 calc R U . . .
C8A C 0.498(2) 0.6567(9) 1.1421(13) 0.178(11) Uani 1 1 d DG U . . .
C9A C 0.4368(15) 0.6370(9) 1.1949(19) 0.175(11) Uani 1 1 d G U . . .
H9A H 0.3913 0.6219 1.1581 0.211 Uiso 1 1 calc R U . . .
C10A C 0.4421(12) 0.6395(7) 1.301(2) 0.142(10) Uani 1 1 d G U . . .
H10A H 0.4003 0.6261 1.3375 0.170 Uiso 1 1 calc R U . . .
N5A N 0.5117(16) 1.0000 0.651(3) 0.100(9) Uani 1 2 d DS TU P . .
C11A C 0.5144(15) 0.9640(11) 0.715(3) 0.158(11) Uani 1 1 d D U . . .
H11A H 0.5121 0.9342 0.6822 0.189 Uiso 1 1 calc R U . . .
C12A C 0.520(2) 0.9614(12) 0.816(3) 0.182(12) Uani 1 1 d D U . . .
H12A H 0.5172 0.9315 0.8482 0.218 Uiso 1 1 calc R U . . .
C13A C 0.529(4) 1.0000 0.875(4) 0.185(14) Uani 1 2 d DS TU P . .
N6A N 0.4938(16) 1.0000 1.362(2) 0.089(9) Uani 1 2 d DS TU P . .
C14A C 0.4870(14) 0.9624(10) 1.303(2) 0.136(10) Uani 1 1 d D U . . .
H14A H 0.4887 0.9328 1.3370 0.163 Uiso 1 1 calc R U . . .
C15A C 0.478(2) 0.9615(12) 1.201(2) 0.175(12) Uani 1 1 d D U . . .
H15A H 0.4688 0.9319 1.1674 0.211 Uiso 1 1 calc R U . . .
C16A C 0.481(4) 1.0000 1.142(4) 0.179(14) Uani 1 2 d DS TU P . .
N7A N 0.547(3) 1.0000 0.982(4) 0.203(14) Uani 1 2 d DS TU P . .
N8A N 0.482(3) 1.0000 1.033(4) 0.204(14) Uani 1 2 d DS TU P . .

loop_
_atom_site_aniso_label
_atom_site_aniso_U_11
_atom_site_aniso_U_22
_atom_site_aniso_U_33
_atom_site_aniso_U_23
_atom_site_aniso_U_13
_atom_site_aniso_U_12
Ni1 0.0119(14) 0.0610(16) 0.162(3) -0.004(2) 0.0174(16) -0.0020(13)
Ni2 0.016(2) 0.055(2) 0.128(4) 0.000 0.016(2) 0.000
O1 0.027(8) 0.020(6) 0.144(13) 0.004(7) 0.008(8) -0.015(5)
O2 0.045(9) 0.118(11) 0.203(13) -0.005(11) 0.022(9) 0.003(8)
O3 0.039(7) 0.076(8) 0.070(8) 0.004(7) 0.011(6) 0.041(6)
O4 0.029(9) 0.081(11) 0.30(2) -0.002(13) 0.019(11) 0.003(8)
O5 0.031(7) 0.094(9) 0.096(9) -0.003(8) 0.005(7) -0.032(7)
O6 0.039(10) 0.060(10) 0.32(2) -0.003(12) 0.039(12) 0.005(8)
C1 0.040(7) 0.045(6) 0.013(6) -0.001(6) 0.001(5) 0.006(6)
C2 0.036(7) 0.047(6) 0.021(6) 0.004(6) 0.004(5) 0.021(6)
C3 0.043(7) 0.057(7) 0.031(7) 0.004(6) 0.004(6) 0.012(6)
C4 0.039(7) 0.065(7) 0.042(7) 0.004(6) 0.009(6) 0.013(6)
C5 0.041(7) 0.060(7) 0.033(7) 0.006(6) 0.002(6) 0.004(6)
C6 0.035(7) 0.045(7) 0.027(6) 0.005(6) -0.003(6) -0.004(6)
C7 0.057(11) 0.094(13) 0.109(13) 0.000(11) 0.012(10) -0.003(10)
C8 0.077(13) 0.080(12) 0.093(13) 0.000(11) 0.010(11) -0.004(10)
C9 0.066(12) 0.050(10) 0.100(13) -0.007(10) 0.010(10) 0.035(9)
O7 0.025(6) 0.064(7) 0.067(7) -0.006(6) 0.000(5) 0.000(5)
O8 0.048(8) 0.031(5) 0.095(8) 0.001(6) 0.010(6) -0.007(5)
O9 0.037(7) 0.070(6) 0.118(8) 0.002(8) 0.011(6) -0.011(6)
C10 0.019(7) 0.028(7) 0.023(7) 0.000 -0.003(6) 0.000
C11 0.023(7) 0.028(7) 0.013(7) 0.000 -0.005(6) 0.000
C12 0.031(6) 0.035(6) 0.021(6) -0.001(6) 0.003(5) 0.008(5)
C13 0.030(5) 0.040(5) 0.032(5) -0.002(5) 0.000(4) 0.001(4)
C14 0.027(7) 0.037(6) 0.024(7) 0.000 0.000(5) 0.000
C15 0.029(6) 0.052(6) 0.073(7) 0.000(6) 0.012(6) 0.007(6)
N1A 0.072(12) 0.053(10) 0.124(14) 0.019(9) 0.036(10) 0.001(8)
C1A 0.130(17) 0.163(16) 0.154(18) 0.018(15) 0.026(15) -0.004(15)
C2A 0.167(18) 0.195(18) 0.176(19) 0.016(16) 0.018(16) -0.012(16)
C3A 0.176(17) 0.199(17) 0.161(17) 0.018(15) 0.025(15) -0.015(15)
C4A 0.152(18) 0.181(17) 0.164(18) 0.010(16) 0.028(16) -0.011(16)
C5A 0.118(16) 0.127(15) 0.149(17) 0.009(15) 0.036(14) -0.010(14)
N3A 0.21(2) 0.22(2) 0.17(2) 0.005(18) 0.035(18) -0.008(18)
N4A 0.20(2) 0.23(2) 0.17(2) -0.008(18) 0.021(19) -0.002(18)
N2A 0.068(13) 0.073(11) 0.129(14) -0.018(10) 0.022(11) 0.001(9)
C6A 0.109(16) 0.156(16) 0.145(17) -0.013(15) 0.030(15) -0.015(14)
C7A 0.151(18) 0.183(17) 0.168(18) -0.014(16) 0.023(16) -0.021(16)
C8A 0.176(17) 0.201(17) 0.162(17) -0.013(15) 0.034(15) -0.011(15)
C9A 0.163(18) 0.194(18) 0.173(19) -0.003(17) 0.036(16) -0.014(16)
C10A 0.125(17) 0.138(16) 0.162(17) 0.002(15) 0.009(15) -0.015(15)
N5A 0.048(14) 0.101(17) 0.16(2) 0.000 0.063(14) 0.000
C11A 0.138(17) 0.162(18) 0.176(19) 0.006(15) 0.030(16) -0.004(15)
C12A 0.174(19) 0.187(19) 0.18(2) 0.016(16) 0.013(17) 0.008(16)
C13A 0.18(2) 0.19(2) 0.18(2) 0.000 0.015(18) 0.000
N6A 0.054(15) 0.085(15) 0.127(19) 0.000 0.009(14) 0.000
C14A 0.117(16) 0.141(17) 0.148(18) -0.008(15) 0.012(15) 0.002(14)
C15A 0.169(18) 0.177(18) 0.181(19) -0.005(16) 0.014(17) 0.015(15)
C16A 0.18(2) 0.19(2) 0.16(2) 0.000 0.026(18) 0.000
N7A 0.20(2) 0.221(19) 0.19(2) 0.000 0.020(18) 0.000
N8A 0.20(2) 0.227(19) 0.18(2) 0.000 0.021(18) 0.000

_geom_special_details            
;
 All esds (except the esd in the dihedral angle between two l.s. planes)
 are estimated using the full covariance matrix.  The cell esds are taken
 into account individually in the estimation of esds in distances, angles
 and torsion angles; correlations between esds in cell parameters are only
 used when they are defined by crystal symmetry.  An approximate (isotropic)
 treatment of cell esds is used for estimating esds involving l.s. planes.
;

loop_
_geom_bond_atom_site_label_1
_geom_bond_atom_site_label_2
_geom_bond_distance
_geom_bond_site_symmetry_2
_geom_bond_publ_flag
Ni1 O1 1.927(10) . ?
Ni1 N1A 1.997(18) . ?
Ni1 O5 2.020(14) 4_465 ?
Ni1 N2A 2.044(18) 1_554 ?
Ni1 O9 2.107(13) 4_565 ?
Ni1 O8 2.123(13) 4_565 ?
Ni1 C15 2.406(16) 4_565 ?
Ni2 N5A 1.81(4) . ?
Ni2 N6A 1.95(3) 1_554 ?
Ni2 O3 1.971(11) . ?
Ni2 O3 1.971(11) 2_575 ?
Ni2 O7 2.071(13) 2_575 ?
Ni2 O7 2.071(13) . ?
Ni2 C10 2.414(18) . ?
O1 C7 1.22(3) . ?
O2 C7 1.36(3) . ?
O3 C8 1.23(3) . ?
O4 C8 1.35(3) . ?
O5 C9 1.21(2) . ?
O5 Ni1 2.020(14) 4_565 ?
O6 C9 1.23(2) . ?
C1 C2 1.3900 . ?
C1 C6 1.3900 . ?
C1 C7 1.41(3) . ?
C2 C3 1.3900 . ?
C3 C4 1.3900 . ?
C3 C8 1.394(19) . ?
C4 C5 1.3900 . ?
C5 C6 1.3900 . ?
C5 C9 1.492(18) . ?
O7 C10 1.241(13) . ?
O8 C15 1.196(16) . ?
O8 Ni1 2.123(13) 4_465 ?
O9 C15 1.252(17) . ?
O9 Ni1 2.108(13) 4_465 ?
C10 O7 1.241(13) 2_575 ?
C10 C11 1.44(2) . ?
C11 C12 1.321(18) . ?
C11 C12 1.321(18) 2_575 ?
C12 C13 1.45(2) . ?
C13 C14 1.368(18) . ?
C13 C15 1.431(18) . ?
C14 C13 1.368(18) 2_575 ?
C15 Ni1 2.406(16) 4_465 ?
N1A C1A 1.3900 . ?
N1A C5A 1.3900 . ?
C1A C2A 1.3900 . ?
C2A C3A 1.3900 . ?
C3A C4A 1.3900 . ?
C3A N3A 1.48(2) . ?
C4A C5A 1.3900 . ?
N3A N4A 1.30(2) . ?
N4A C8A 1.45(2) . ?
N2A C6A 1.3900 . ?
N2A C10A 1.3900 . ?
N2A Ni1 2.044(18) 1_556 ?
C6A C7A 1.3900 . ?
C7A C8A 1.3900 . ?
C8A C9A 1.3900 . ?
C9A C10A 1.3900 . ?
N5A C11A 1.32(2) 2_575 ?
N5A C11A 1.32(2) . ?
C11A C12A 1.32(2) . ?
C12A C13A 1.33(2) . ?
C13A C12A 1.33(2) 2_575 ?
C13A N7A 1.41(3) . ?
N6A C14A 1.32(2) . ?
N6A C14A 1.32(2) 2_575 ?
N6A Ni2 1.95(3) 1_556 ?
C14A C15A 1.33(2) . ?
C15A C16A 1.34(2) . ?
C16A C15A 1.34(2) 2_575 ?
C16A N8A 1.43(3) . ?
N7A N8A 1.29(3) . ?

loop_
_geom_angle_atom_site_label_1
_geom_angle_atom_site_label_2
_geom_angle_atom_site_label_3
_geom_angle
_geom_angle_site_symmetry_1
_geom_angle_site_symmetry_3
_geom_angle_publ_flag
O1 Ni1 N1A 92.0(7) . . ?
O1 Ni1 O5 112.1(6) . 4_465 ?
N1A Ni1 O5 90.5(7) . 4_465 ?
O1 Ni1 N2A 87.4(7) . 1_554 ?
N1A Ni1 N2A 179.0(10) . 1_554 ?
O5 Ni1 N2A 90.4(8) 4_465 1_554 ?
O1 Ni1 O9 155.4(6) . 4_565 ?
N1A Ni1 O9 88.1(7) . 4_565 ?
O5 Ni1 O9 92.5(6) 4_465 4_565 ?
N2A Ni1 O9 92.0(7) 1_554 4_565 ?
O1 Ni1 O8 94.3(5) . 4_565 ?
N1A Ni1 O8 88.1(7) . 4_565 ?
O5 Ni1 O8 153.6(6) 4_465 4_565 ?
N2A Ni1 O8 91.1(7) 1_554 4_565 ?
O9 Ni1 O8 61.1(5) 4_565 4_565 ?
O1 Ni1 C15 124.0(6) . 4_565 ?
N1A Ni1 C15 87.9(6) . 4_565 ?
O5 Ni1 C15 123.8(6) 4_465 4_565 ?
N2A Ni1 C15 91.7(6) 1_554 4_565 ?
O9 Ni1 C15 31.3(4) 4_565 4_565 ?
O8 Ni1 C15 29.8(4) 4_565 4_565 ?
N5A Ni2 N6A 179.0(12) . 1_554 ?
N5A Ni2 O3 90.8(6) . . ?
N6A Ni2 O3 88.6(6) 1_554 . ?
N5A Ni2 O3 90.8(6) . 2_575 ?
N6A Ni2 O3 88.6(6) 1_554 2_575 ?
O3 Ni2 O3 111.6(9) . 2_575 ?
N5A Ni2 O7 87.0(8) . 2_575 ?
N6A Ni2 O7 93.9(8) 1_554 2_575 ?
O3 Ni2 O7 155.0(5) . 2_575 ?
O3 Ni2 O7 93.3(5) 2_575 2_575 ?
N5A Ni2 O7 87.0(8) . . ?
N6A Ni2 O7 93.9(8) 1_554 . ?
O3 Ni2 O7 93.3(5) . . ?
O3 Ni2 O7 155.0(5) 2_575 . ?
O7 Ni2 O7 61.7(7) 2_575 . ?
N5A Ni2 C10 88.6(10) . . ?
N6A Ni2 C10 92.4(9) 1_554 . ?
O3 Ni2 C10 124.2(4) . . ?
O3 Ni2 C10 124.2(4) 2_575 . ?
O7 Ni2 C10 30.9(3) 2_575 . ?
O7 Ni2 C10 30.9(3) . . ?
C7 O1 Ni1 142.9(16) . . ?
C8 O3 Ni2 143.0(16) . . ?
C9 O5 Ni1 136.4(14) . 4_565 ?
C2 C1 C6 120.0 . . ?
C2 C1 C7 121.6(13) . . ?
C6 C1 C7 118.4(13) . . ?
C1 C2 C3 120.0 . . ?
C4 C3 C2 120.0 . . ?
C4 C3 C8 119.8(14) . . ?
C2 C3 C8 120.2(14) . . ?
C5 C4 C3 120.0 . . ?
C4 C5 C6 120.0 . . ?
C4 C5 C9 121.6(11) . . ?
C6 C5 C9 118.4(11) . . ?
C5 C6 C1 120.0 . . ?
O1 C7 O2 122(2) . . ?
O1 C7 C1 124(2) . . ?
O2 C7 C1 114(2) . . ?
O3 C8 O4 118.1(18) . . ?
O3 C8 C3 122(2) . . ?
O4 C8 C3 119(2) . . ?
O5 C9 O6 126(2) . . ?
O5 C9 C5 114.8(16) . . ?
O6 C9 C5 119(2) . . ?
C10 O7 Ni2 90.0(11) . . ?
C15 O8 Ni1 88.3(11) . 4_465 ?
C15 O9 Ni1 87.6(11) . 4_465 ?
O7 C10 O7 117.9(19) 2_575 . ?
O7 C10 C11 120.8(10) 2_575 . ?
O7 C10 C11 120.8(10) . . ?
O7 C10 Ni2 59.1(9) 2_575 . ?
O7 C10 Ni2 59.1(10) . . ?
C11 C10 Ni2 179.1(15) . . ?
C12 C11 C12 118.2(19) . 2_575 ?
C12 C11 C10 120.9(9) . . ?
C12 C11 C10 120.9(9) 2_575 . ?
C11 C12 C13 124.3(14) . . ?
C14 C13 C15 124.4(15) . . ?
C14 C13 C12 113.2(14) . . ?
C15 C13 C12 122.2(14) . . ?
C13 C14 C13 126(2) 2_575 . ?
O8 C15 O9 123.0(17) . . ?
O8 C15 C13 119.3(15) . . ?
O9 C15 C13 117.7(15) . . ?
O8 C15 Ni1 61.9(9) . 4_465 ?
O9 C15 Ni1 61.1(9) . 4_465 ?
C13 C15 Ni1 178.2(13) . 4_465 ?
C1A N1A C5A 120.0 . . ?
C1A N1A Ni1 122.9(13) . . ?
C5A N1A Ni1 117.1(13) . . ?
C2A C1A N1A 120.0 . . ?
C3A C2A C1A 120.0 . . ?
C2A C3A C4A 120.0 . . ?
C2A C3A N3A 110(2) . . ?
C4A C3A N3A 129(2) . . ?
C3A C4A C5A 120.0 . . ?
C4A C5A N1A 120.0 . . ?
N4A N3A C3A 109(3) . . ?
N3A N4A C8A 116(3) . . ?
C6A N2A C10A 120.0 . . ?
C6A N2A Ni1 119.7(14) . 1_556 ?
C10A N2A Ni1 120.1(14) . 1_556 ?
C7A C6A N2A 120.0 . . ?
C6A C7A C8A 120.0 . . ?
C9A C8A C7A 120.0 . . ?
C9A C8A N4A 123(3) . . ?
C7A C8A N4A 116(3) . . ?
C8A C9A C10A 120.0 . . ?
C9A C10A N2A 120.0 . . ?
C11A N5A C11A 101(4) 2_575 . ?
C11A N5A Ni2 129.3(19) 2_575 . ?
C11A N5A Ni2 129.3(19) . . ?
C12A C11A N5A 133(3) . . ?
C11A C12A C13A 121(4) . . ?
C12A C13A C12A 110(5) . 2_575 ?
C12A C13A N7A 125(2) . . ?
C12A C13A N7A 125(2) 2_575 . ?
C14A N6A C14A 108(4) . 2_575 ?
C14A N6A Ni2 125.7(18) . 1_556 ?
C14A N6A Ni2 125.7(18) 2_575 1_556 ?
N6A C14A C15A 127(3) . . ?
C14A C15A C16A 123(4) . . ?
C15A C16A C15A 110(4) 2_575 . ?
C15A C16A N8A 125(2) 2_575 . ?
C15A C16A N8A 125(2) . . ?
N8A N7A C13A 114(5) . . ?
N7A N8A C16A 127(5) . . ?

_refine_diff_density_max         1.221
_refine_diff_density_min         -0.977
_refine_diff_density_rms         0.111

_shelx_res_file                  
;

    l15_053mono_sq.res created by SHELXL-2014/7

TITL L15_053Mono in Cm
CELL 0.71073  16.3838  28.3756  13.0791  90.000  95.575  90.000
ZERR    2.00   0.0033   0.0057   0.0026   0.000   0.030   0.000
LATT -7
SYMM X, -Y, Z
SFAC C  H  N  O  Ni
UNIT 114 72 24 36 6
OMIT  -3.00  48.00
L.S. 30 0  221
BOND
ACTA
FMAP 2
PLAN 20
SIMU 0.02 N1A  C1A  C2A  C3A  C4A  C5A  N3A
SIMU 0.02 N2A  C6A  C7A  C8A  C9A  C10A N4A
SIMU 0.02 N5A  C11A C12A C13A C14A C15A C16A N6A  N7A  N8A
ISOR 0.02 N1A  C1A  C2A  C3A  C4A  C5A  N3A
ISOR 0.02 N2A  C6A  C7A  C8A  C9A  C10A N4A
ISOR 0.02 N5A  C11A C12A C13A C14A C15A C16A N6A  N7A  N8A
SIMU 0.01 O7   O8   O9   C10  C11  C12  C13  C14  C15
ISOR 0.005 O2  C13 C14
ISOR 0.01 O7   O8   O9   C10  C11  C12  C15
SIMU 0.01 C1   C2   C3   C4   C5   C6
ISOR 0.01 O3   O4   O5   O6   C1   C2   C3   C4   C5 C6 C7 C8 C9
FLAT O1   O2   C1   C7
FLAT O3   O4   C3   C8
FLAT O5   O6   C5   C6
FLAT O8   O9   C13  C15
DFIX 1.45      C5   C9
DFIX 1.45      C3   C8
DFIX 1.23      O7   C10
DFIX 1.45      C10  C11
DFIX 1.23      O9   C15
DFIX 1.23      O8   C15
DANG 2.15      O8   O9
DFIX 1.45      C13  C15
DFIX 1.40      N3A  C3A
DFIX 1.40      N4A  C8A
DFIX 1.30      N3A  N4A
DANG 2.15      N4A  C3A
DANG 2.15      N3A  C8A
DFIX 1.38      N5A  C11A
DFIX 1.38      C11A C12A
DFIX 1.38      C12A C13A
DANG 2.25      N5A  C12A
DANG 2.25      C11A C13A
FLAT N5A  C11A C12A C13A C11A_$4 C12A_$4
DFIX 1.38      N6A  C14A
DFIX 1.38      C14A C15A
DFIX 1.38      C15A C16A
DANG 2.25      N6A  C15A
DANG 2.25      C14A C16A
FLAT N6A  C14A C15A C16A C14A_$4 C15A_$4
DFIX 1.40      C13A N7A
DFIX 1.40      C16A N8A
DFIX 1.30      N7A  N8A
EQIV $4   x, -y+2, z
SIZE 0.30 0.29 0.10
TWIN
ABIN
TEMP -100
WGHT    0.200000
BASF   0.30388
FVAR       0.07540
NI1   5    0.521790    0.660604    0.512210    11.00000    0.01192    0.06104 =
         0.16196   -0.00440    0.01742   -0.00199
NI2   5    0.502041    1.000000    0.512027    10.50000    0.01564    0.05515 =
         0.12825    0.00000    0.01551    0.00000
O1    4    0.572755    0.721654    0.507225    11.00000    0.02722    0.01967 =
         0.14432    0.00448    0.00790   -0.01527
O2    4    0.481130    0.780810    0.512820    11.00000    0.04451    0.11762 =
         0.20326   -0.00456    0.02176    0.00274
O3    4    0.569533    0.942537    0.510822    11.00000    0.03867    0.07619 =
         0.07015    0.00427    0.01093    0.04051
O4    4    0.701239    0.960979    0.518226    11.00000    0.02898    0.08081 =
         0.30002   -0.00220    0.01905    0.00292
O5    4    0.898948    0.834688    0.514670    11.00000    0.03108    0.09361 =
         0.09616   -0.00333    0.00501   -0.03160
O6    4    0.863537    0.760899    0.513567    11.00000    0.03917    0.05978 =
         0.31527   -0.00324    0.03897    0.00476
AFIX  66
C1    1    0.619192    0.799327    0.508849    11.00000    0.03998    0.04465 =
         0.01329   -0.00059    0.00074    0.00606
C2    1    0.599018    0.846904    0.509178    11.00000    0.03632    0.04713 =
         0.02060    0.00379    0.00392    0.02110
AFIX  43
H2    2    0.543302    0.856260    0.508607    11.00000   -1.20000
AFIX  65
C3    1    0.660365    0.880791    0.510341    11.00000    0.04256    0.05695 =
         0.03102    0.00437    0.00448    0.01200
C4    1    0.741886    0.867102    0.511176    11.00000    0.03942    0.06527 =
         0.04210    0.00388    0.00919    0.01254
AFIX  43
H4    2    0.783814    0.890262    0.511972    11.00000   -1.20000
AFIX  65
C5    1    0.762061    0.819525    0.510848    11.00000    0.04058    0.06008 =
         0.03301    0.00613    0.00161    0.00443
C6    1    0.700715    0.785638    0.509684    11.00000    0.03505    0.04520 =
         0.02683    0.00509   -0.00264   -0.00413
AFIX  43
H6    2    0.714504    0.753121    0.509460    11.00000   -1.20000
AFIX   0
C7    1    0.558658    0.763906    0.509412    11.00000    0.05740    0.09430 =
         0.10909   -0.00044    0.01179   -0.00317
C8    1    0.640528    0.928546    0.512353    11.00000    0.07740    0.08008 =
         0.09297    0.00017    0.01015   -0.00357
C9    1    0.848888    0.803410    0.512462    11.00000    0.06559    0.05028 =
         0.10041   -0.00687    0.00951    0.03458
O7    4    0.394201    0.962552    0.518896    11.00000    0.02488    0.06417 =
         0.06741   -0.00621   -0.00047    0.00033
O8    4    0.133862    0.876980    0.512922    11.00000    0.04771    0.03129 =
         0.09512    0.00063    0.01015   -0.00723
O9    4    0.019174    0.913635    0.515335    11.00000    0.03721    0.06958 =
         0.11780    0.00189    0.01095   -0.01135
C10   1    0.354936    1.000000    0.514578    10.50000    0.01864    0.02796 =
         0.02324    0.00000   -0.00270    0.00000
C11   1    0.267604    1.000000    0.517777    10.50000    0.02331    0.02838 =
         0.01333    0.00000   -0.00540    0.00000
C12   1    0.226288    0.960062    0.519119    11.00000    0.03118    0.03464 =
         0.02130   -0.00133    0.00327    0.00828
AFIX  43
H12   2    0.256654    0.931496    0.524093    11.00000   -1.20000
AFIX   0
C13   1    0.137506    0.956966    0.513488    11.00000    0.03009    0.04014 =
         0.03153   -0.00203    0.00016    0.00076
C14   1    0.100037    1.000000    0.515297    10.50000    0.02730    0.03729 =
         0.02443    0.00000   -0.00009    0.00000
AFIX  43
H14   2    0.042311    1.000000    0.518081    10.50000   -1.20000
AFIX   0
C15   1    0.095496    0.912772    0.514578    11.00000    0.02924    0.05244 =
         0.07301    0.00031    0.01232    0.00685
AFIX  66
N1A   3    0.536680    0.659619    0.665584    11.00000    0.07170    0.05283 =
         0.12358    0.01905    0.03619    0.00138
C1A   1    0.600910    0.682551    0.722460    11.00000    0.12968    0.16266 =
         0.15413    0.01767    0.02648   -0.00441
AFIX  43
H1A   2    0.641014    0.698911    0.688405    11.00000   -1.20000
AFIX  65
C2A   1    0.606461    0.681545    0.829163    11.00000    0.16651    0.19503 =
         0.17580    0.01618    0.01782   -0.01208
AFIX  43
H2A   2    0.650360    0.697218    0.868035    11.00000   -1.20000
AFIX  65
C3A   1    0.547782    0.657607    0.878992    11.00000    0.17554    0.19852 =
         0.16103    0.01821    0.02545   -0.01458
C4A   1    0.483552    0.634675    0.822117    11.00000    0.15227    0.18112 =
         0.16432    0.00977    0.02790   -0.01114
AFIX  43
H4A   2    0.443448    0.618315    0.856173    11.00000   -1.20000
AFIX  65
C5A   1    0.477999    0.635681    0.715414    11.00000    0.11774    0.12749 =
         0.14919    0.00856    0.03648   -0.01043
AFIX  43
H5A   2    0.434101    0.620008    0.676542    11.00000   -1.20000
AFIX   0
N3A   3    0.562258    0.664715    0.991036    11.00000    0.21452    0.22035 =
         0.17453    0.00530    0.03490   -0.00766
N4A   3    0.493014    0.659776    1.030679    11.00000    0.19927    0.22594 =
         0.16836   -0.00765    0.02102   -0.00185
AFIX  66
N2A   3    0.508710    0.661731    1.355236    11.00000    0.06815    0.07317 =
         0.12935   -0.01816    0.02188    0.00147
C6A   1    0.569982    0.681437    1.302432    11.00000    0.10919    0.15553 =
         0.14539   -0.01273    0.02972   -0.01470
AFIX  43
H6A   2    0.615484    0.696608    1.339185    11.00000   -1.20000
AFIX  65
C7A   1    0.564679    0.678946    1.195855    11.00000    0.15102    0.18326 =
         0.16761   -0.01394    0.02313   -0.02084
AFIX  43
H7A   2    0.606556    0.692414    1.159766    11.00000   -1.20000
AFIX  65
C8A   1    0.498103    0.656749    1.142079    11.00000    0.17646    0.20070 =
         0.16169   -0.01344    0.03408   -0.01073
C9A   1    0.436831    0.637043    1.194882    11.00000    0.16273    0.19446 =
         0.17294   -0.00316    0.03585   -0.01379
AFIX  43
H9A   2    0.391329    0.621872    1.158129    11.00000   -1.20000
AFIX  65
C10A  1    0.442133    0.639534    1.301460    11.00000    0.12508    0.13798 =
         0.16191    0.00239    0.00873   -0.01455
AFIX  43
H10A  2    0.400256    0.626066    1.337548    11.00000   -1.20000
AFIX   0
N5A   3    0.511679    1.000000    0.651172    10.50000    0.04803    0.10141 =
         0.16182    0.00000    0.06326    0.00000
C11A  1    0.514434    0.964027    0.715321    11.00000    0.13819    0.16200 =
         0.17614    0.00588    0.02951   -0.00412
AFIX  43
H11A  2    0.512129    0.934187    0.682230    11.00000   -1.20000
AFIX   0
C12A  1    0.519755    0.961417    0.816268    11.00000    0.17385    0.18691 =
         0.18317    0.01607    0.01276    0.00760
AFIX  43
H12A  2    0.517207    0.931451    0.848195    11.00000   -1.20000
AFIX   0
C13A  1    0.528656    1.000000    0.874669    10.50000    0.18271    0.19424 =
         0.17820    0.00000    0.01517    0.00000
N6A   3    0.493804    1.000000    1.362253    10.50000    0.05414    0.08468 =
         0.12735    0.00000    0.00879    0.00000
C14A  1    0.487002    0.962404    1.303113    11.00000    0.11663    0.14136 =
         0.14836   -0.00840    0.01157    0.00242
AFIX  43
H14A  2    0.488690    0.932762    1.337017    11.00000   -1.20000
AFIX   0
C15A  1    0.477987    0.961458    1.200612    11.00000    0.16852    0.17659 =
         0.18061   -0.00483    0.01358    0.01524
AFIX  43
H15A  2    0.468822    0.931885    1.167422    11.00000   -1.20000
AFIX   0
C16A  1    0.481186    1.000000    1.142143    10.50000    0.18425    0.19321 =
         0.16198    0.00000    0.02607    0.00000
N7A   3    0.546554    1.000000    0.982387    10.50000    0.19780    0.22064 =
         0.19087    0.00000    0.02014    0.00000
N8A   3    0.482494    1.000000    1.032855    10.50000    0.20318    0.22660 =
         0.18232    0.00000    0.02072    0.00000
HKLF 4

REM  L15_053Mono in Cm
REM R1 =  0.1322 for    3897 Fo > 4sig(Fo)  and  0.2243 for all    8954 data
REM    386 parameters refined using    542 restraints

END

WGHT      0.2000      0.0000

REM Highest difference peak  1.221,  deepest hole -0.977,  1-sigma level  0.111
Q1    1   0.4968  0.6890  0.5101  11.00000  0.05    1.01
Q2    1   0.5427  0.9693  0.5139  11.00000  0.05    0.85
Q3    1   0.9145  0.8714  0.5236  11.00000  0.05    0.72
Q4    1   0.4812  0.7774  0.4407  11.00000  0.05    0.70
Q5    1   0.4597  0.6245  0.5164  11.00000  0.05    0.69
Q6    1   0.6232  1.0000  0.5056  10.50000  0.05    0.68
Q7    1   0.7363  0.8485  0.5134  11.00000  0.05    0.63
Q8    1   0.6319  0.6937  0.5137  11.00000  0.05    0.61
Q9    1   0.4946  0.7799  0.5954  11.00000  0.05    0.58
Q10   1   0.0619  1.0343  0.5218  11.00000  0.05    0.57
Q11   1   0.5358  0.8923  0.5170  11.00000  0.05    0.55
Q12   1   0.0620  0.8767  0.5140  11.00000  0.05    0.53
Q13   1   0.1947  0.9296  0.5117  11.00000  0.05    0.51
Q14   1   0.5948  0.8322  0.5097  11.00000  0.05    0.51
Q15   1  -0.0127  0.9606  0.5216  11.00000  0.05    0.51
Q16   1   0.6451  0.8142  0.5141  11.00000  0.05    0.50
Q17   1   0.5773  0.9388  0.5859  11.00000  0.05    0.49
Q18   1   0.5177  0.8241  0.5164  11.00000  0.05    0.48
Q19   1   0.1822  0.8412  0.5121  11.00000  0.05    0.48
Q20   1   0.5090  1.0000  0.7042  10.50000  0.05    0.46
;
_shelx_res_checksum              63023

_shelx_hkl_file                  
;
   0   0   2  559.21   35.87
   0   0  -2  521.52   32.02
   0   0   3 2924.69  774.76
   0   0  -3 3071.33  827.18
   0   0   4 2386.66  520.97
   0   0  -4 2282.19  501.13
   0   0   5 1023.55  119.65
   0   0  -5 1031.99  130.59
   0   0   6 1563.10  258.48
   0   0  -6 1521.76  252.24
   0   0   7  387.40   29.31
   0   0  -7  308.26   23.26
   0   0   8  261.23   17.59
   0   0  -8  237.67   19.75
   0   0   9  188.44   13.14
   0   0  -9  149.75   11.19
   0   0  10  138.00   11.80
   0   0 -10  141.16    9.71
   0   0  11   54.95    5.67
   0   0 -11   51.59    4.46
   0   0  12   30.16    4.32
   0   0 -12   26.51    3.13
   0   0  13   27.06    3.21
   0   0  14   -5.21    3.37
   0   0 -14   14.68    2.35
   0   0  15   -1.13    2.41
   0   2 -15    1.41    1.73
   0  -2  15   -2.97    3.47
   0   2 -14    1.82    1.75
   0  -2  14   -2.93    2.39
   0   2 -13    5.77    1.84
   0  -2  13   -6.97    3.36
   0  -2  12   -3.36    2.03
   0  -2  12    2.48    1.40
   0   2 -11    3.64    1.65
   0  -2  11   -1.38    1.75
   0  -2  11    7.78    2.16
   0   2 -10    3.04    2.39
   0  -2  10    9.73    3.00
   0   2  -9    7.91    1.58
   0  -2   9    2.57    1.87
   0   2  -8    1.96    1.29
   0  -2   8    3.35    2.07
   0   2  -7    4.12    1.66
   0  -2   7    6.65    1.44
   0   2  -6   46.17    2.33
   0  -2   6   26.45    2.41
   0   2  -5    8.42    1.52
   0  -2   5    7.42    1.57
   0   2  -4    2.96    0.90
   0  -2   4    7.20    0.99
   0   2  -3    0.10    0.88
   0  -2   3    1.79    0.69
   0   2  -2    1.98    0.59
   0  -2   2    0.47    0.55
   0   2   2    0.29    0.83
   0  -2  -2   -0.08    0.78
   0   2   3   -0.42    1.00
   0  -2  -3    2.72    1.11
   0   2   4    9.65    1.43
   0  -2  -4   12.64    1.56
   0   2   5    7.65    1.45
   0  -2  -5    9.76    2.11
   0   2   6   24.33    2.97
   0  -2  -6   39.70    2.90
   0   2   7    4.35    1.62
   0  -2  -7    9.89    1.69
   0   2   8    4.07    2.25
   0  -2  -8   -0.78    2.24
   0   2   9   -0.25    1.86
   0  -2  -9   -0.52    1.71
   0   2  10    2.22    2.34
   0  -2 -10    4.37    2.05
   0   2  11    9.65    2.83
   0  -2 -12    5.07    2.26
   0   2  13   10.81    3.86
   0   2  14   -0.45    1.73
   0  -2 -14    4.78    2.14
   0   2  15   -0.82    2.91
   0  -2 -15    4.01    2.29
   0   4 -15    0.79    1.48
   0  -4  15    2.64    2.78
   0   4 -14    2.21    2.09
   0  -4  14    1.57    3.64
   0   4 -13    1.81    1.59
   0  -4  13    1.45    2.84
   0   4 -12    1.20    1.95
   0  -4  12    2.92    2.53
   0  -4  11    3.74    3.07
   0   4 -10    1.04    1.34
   0  -4  10    2.58    1.95
   0  -4  10    2.41    1.04
   0   4  -9   -2.23    1.59
   0  -4   9   -0.54    1.54
   0  -4   9    5.11    1.89
   0  -4   8    0.86    1.37
   0  -4   8    1.57    1.67
   0   4  -7    1.37    1.19
   0  -4   7    0.36    1.26
   0  -4   7    1.36    1.06
   0  -4   6    1.43    1.30
   0  -4   6    3.98    1.43
   0   4  -5    0.13    0.89
   0  -4   5   -1.77    1.03
   0  -4   5    0.27    1.04
   0   4  -4    4.34    0.77
   0  -4   4    1.83    1.03
   0  -4   4    3.75    1.15
   0   4  -3   29.14    1.14
   0  -4   3   25.94    1.68
   0   4  -2    3.31    0.81
   0  -4   2    2.47    0.85
   0   4  -1   12.30    1.07
   0  -4   1   13.03    0.99
   0   4   1   12.11    1.02
   0  -4  -1   10.97    0.93
   0   4   2    4.25    1.11
   0  -4  -2    1.94    1.07
   0   4   3   30.95    2.18
   0  -4  -3   30.23    2.14
   0   4   4    4.92    1.17
   0  -4  -4    2.79    1.34
   0   4   5    0.38    1.17
   0  -4  -5    3.19    1.33
   0   4   6    4.22    1.48
   0  -4  -6    2.62    1.65
   0   4   7   -0.75    1.33
   0  -4  -7    1.67    1.44
   0   4   8   -0.62    1.63
   0   4   9   -2.88    1.83
   0  -4  -9    1.25    1.74
   0   4  10    1.95    2.09
   0  -4 -10   -0.58    2.00
   0   4  11   -2.86    3.29
   0   4  12    6.07    2.91
   0  -4 -12    4.78    2.40
   0   4  13    9.37    3.46
   0  -4 -13    4.03    2.61
   0   4  14   -0.91    3.43
   0  -4 -14    3.32    2.35
   0   4  15    2.70    1.77
   0   6 -15    3.34    1.73
   0  -6  15    2.24    3.17
   0   6 -14    2.58    1.31
   0  -6  14   -1.77    3.18
   0   6 -13    4.34    1.96
   0  -6  13    2.88    3.19
   0   6 -12    2.90    1.40
   0  -6  12    6.86    3.81
   0   6 -11   -0.39    1.62
   0  -6  11    2.73    2.53
   0   6 -10    2.47    1.63
   0  -6  10    5.72    2.53
   0   6  -9   -0.01    1.49
   0  -6   9    9.39    2.31
   0   6  -8   15.61    1.77
   0  -6   8   14.24    2.50
   0   6  -7    6.09    1.26
   0  -6   7    7.66    1.95
   0   6  -6  115.18    5.22
   0  -6   6  117.95    7.56
   0   6  -5   46.09    2.07
   0  -6   5   42.05    3.25
   0   6  -4   19.60    0.78
   0  -6   4   17.43    1.83
   0   6  -2    5.68    1.14
   0  -6   2    3.97    1.17
   0   6  -1   24.14    1.74
   0  -6   1   23.22    1.68
   0   6   0 1540.04  232.07
   0   6   0 1630.60  233.95
   0  -6   0 1359.31  209.75
   0  -6   0 1597.26  221.37
   0   6   1   21.59    1.42
   0   6   1   17.38    1.48
   0  -6  -1   17.31    1.36
   0   6   2    3.18    1.20
   0  -6  -2    5.00    1.19
   0   6   3    8.27    1.46
   0  -6  -3    8.89    1.47
   0   6   4   21.20    1.79
   0  -6  -4   22.71    2.12
   0   6   5   41.62    2.76
   0  -6  -5   45.88    3.29
   0   6   6  100.42    6.27
   0  -6  -6  122.06    7.68
   0   6   7    7.97    1.71
   0  -6  -7   12.03    1.98
   0   6   8   16.84    2.26
   0  -6  -8   18.92    2.56
   0   6   9   12.31    2.87
   0  -6  -9    9.83    2.34
   0   6  10    6.17    2.31
   0  -6 -10    6.22    2.39
   0   6  12    6.23    2.90
   0  -6 -12    3.77    2.58
   0   6  13   10.02    3.51
   0  -6 -13    2.71    2.77
   0   6  14    3.99    3.68
   0  -6 -14    4.99    2.72
   0   8 -14    1.33    1.45
   0  -8  14    5.56    4.58
   0   8 -13   -0.34    1.54
   0  -8  13    6.84    3.18
   0   8 -12    0.70    1.54
   0  -8  12   -0.12    2.92
   0   8 -11    1.05    1.55
   0  -8  11    5.63    2.86
   0   8 -10   -0.88    0.97
   0  -8  10    3.59    2.49
   0   8  -9    1.19    1.21
   0  -8   9    8.60    3.30
   0   8  -8   -0.76    1.03
   0  -8   8    8.18    2.89
   0   8  -7   -0.24    0.91
   0  -8   7    8.25    1.93
   0   8  -6    0.38    0.72
   0  -8   6   -0.79    1.65
   0   8  -5   -0.17    0.61
   0  -8   5    1.77    1.36
   0   8  -4    0.99    0.24
   0  -8   4   -0.34    1.61
   0   8  -3    1.09    1.04
   0  -8   3   -1.18    0.88
   0   8  -2    0.71    1.22
   0  -8   2    3.82    1.18
   0  -8   2    1.32    0.36
   0   8  -1   -0.05    1.00
   0   8  -1    1.36    0.75
   0  -8   1    0.59    1.11
   0  -8   1    1.38    0.51
   0   8   0   -0.15    0.88
   0   8   0    0.46    0.81
   0  -8   0   -0.08    1.16
   0  -8   0   -2.04    0.77
   0   8   1    1.78    1.24
   0   8   1    1.01    1.43
   0  -8  -1    2.71    1.27
   0   8   2    3.08    0.62
   0   8   2    2.12    1.20
   0  -8  -2    1.22    1.16
   0   8   3    0.87    1.07
   0  -8  -3    1.09    1.24
   0   8   4   -1.98    1.12
   0  -8  -4    1.93    1.35
   0   8   5   -0.57    1.21
   0  -8  -5    2.45    1.47
   0   8   6   -3.84    1.39
   0  -8  -6   -2.53    1.77
   0   8   7   -0.99    1.36
   0  -8  -7    0.95    2.29
   0   8   8   -2.00    1.57
   0  -8  -8    0.82    1.86
   0   8   9   -1.14    1.74
   0   8  10    3.77    2.02
   0  -8 -10   -0.89    2.27
   0  -8 -11   -0.60    2.40
   0   8  12   -2.00    2.65
   0  -8 -12    1.98    2.51
   0  -8 -13    2.17    2.71
   0  10 -14    0.97    1.02
   0 -10  14    1.96    3.22
   0  10 -13    0.85    1.21
   0 -10  13   -1.14    3.46
   0  10 -12   -0.07    1.30
   0 -10  12    2.97    3.20
   0  10 -11   -1.72    1.32
   0 -10  11    1.09    4.14
   0  10 -10   -0.46    1.25
   0 -10  10    1.48    2.74
   0  10  -9    1.21    1.05
   0 -10   9   -0.21    2.53
   0  10  -8    0.83    0.86
   0 -10   8   -4.23    2.23
   0  10  -7    0.56    0.68
   0 -10   7    0.64    1.94
   0  10  -6    2.07    0.51
   0  10  -6    1.70    0.50
   0 -10   6    3.65    1.75
   0 -10   5   -0.50    1.44
   0  10  -4    1.65    1.13
   0 -10   4    3.46    1.14
   0  10  -3   -0.41    1.19
   0 -10   3    0.35    0.91
   0  10  -2    1.64    1.26
   0 -10   2    0.33    1.27
   0  10  -1   16.86    1.49
   0  10  -1   12.71    1.25
   0 -10   1   18.08    1.62
   0  10   0  116.00    4.98
   0  10   0  137.85    6.43
   0 -10   0  103.48    4.55
   0  10   1   20.37    1.68
   0 -10  -1   18.80    1.46
   0  10   2    6.10    0.98
   0  10   2    4.31    1.34
   0 -10  -2    6.55    1.71
   0  10   3    1.52    1.15
   0 -10  -3    0.02    1.32
   0  10   4    2.49    1.29
   0 -10  -4    2.45    1.54
   0  10   5   -0.07    1.31
   0 -10  -5   -2.06    1.62
   0  10   6   -0.31    1.39
   0 -10  -6   -1.04    1.74
   0  10   7   -1.18    1.42
   0 -10  -7    1.56    1.81
   0  10   8   -4.37    1.75
   0 -10  -8   -3.82    2.19
   0  10   9    2.55    1.74
   0 -10  -9   -2.97    2.23
   0  10  10    2.44    2.04
   0 -10 -10   -0.51    2.41
   0 -10 -11   -0.77    2.63
   0 -10 -12   -2.67    2.85
   0 -10 -13    5.17    3.11
   0 -12  14   -1.69    4.86
   0  12 -13    0.39    0.76
   0  12 -13    3.04    1.45
   0 -12  13    1.39    3.37
   0  12 -12    0.17    1.07
   0  12 -12    0.40    1.04
   0  12 -12    2.34    1.23
   0 -12  12    5.73    3.13
   0  12 -11    1.09    1.10
   0  12 -11    1.05    1.02
   0 -12  11    5.89    2.99
   0  12 -10   -0.06    0.95
   0  12 -10    0.76    0.78
   0 -12  10    3.74    3.04
   0  12  -9    0.38    0.77
   0  12  -9    0.55    0.58
   0 -12   9    1.27    2.80
   0  12  -8    1.55    0.78
   0 -12   8    7.43    2.30
   0 -12   7    8.17    2.23
   0 -12   6    8.92    1.97
   0 -12   5    4.63    1.48
   0  12  -4    1.20    1.13
   0 -12   4   -1.12    1.10
   0  12  -3   -0.54    1.34
   0 -12   3    3.90    1.04
   0  12  -2   16.52    1.96
   0 -12   2   17.40    1.93
   0  12  -1    8.70    1.05
   0 -12   1    7.91    0.91
   0  12   0   40.88    2.78
   0  12   0   39.58    1.96
   0 -12   0   43.72    2.53
   0 -12   0   36.77    2.07
   0  12   1   24.35    1.48
   0 -12  -1   27.08    2.01
   0  12   2   18.06    1.58
   0  12   2   13.07    1.59
   0 -12  -2   12.45    1.72
   0  12   3    2.06    1.23
   0 -12  -3    0.42    1.39
   0  12   4    0.46    1.24
   0 -12  -4   -0.01    1.48
   0  12   5    2.96    1.43
   0  12   5    4.63    1.45
   0 -12  -5    1.15    1.83
   0  12   6    5.04    1.62
   0 -12  -6    3.94    2.12
   0  12   7   -2.20    1.57
   0 -12  -7    1.04    2.07
   0  12   8    1.22    1.74
   0 -12  -8   -2.75    2.28
   0  12   9    0.96    1.84
   0 -12  -9   -0.76    2.39
   0  12  10    2.42    2.11
   0  12  11   -0.35    2.39
   0 -12 -11    0.57    2.79
   0 -12 -13   -1.78    3.15
   0  12  14   -0.61    3.48
   0 -14  13    1.58    3.82
   0  14 -12    0.47    0.49
   0  14 -12    0.72    0.68
   0  14 -11   -0.37    0.70
   0 -14  10    4.92    3.25
   0 -14   9    8.46    3.25
   0 -14   8   15.71    3.36
   0 -14   7   15.65    2.77
   0 -14   6    3.06    1.73
   0 -14   5    1.42    1.42
   0  14  -4    1.29    1.31
   0 -14   4   -0.90    1.17
   0  14  -3   -0.17    1.44
   0 -14   3    1.60    1.14
   0 -14   3    1.60    0.45
   0  14  -2   10.72    1.76
   0  14  -2    9.44    0.94
   0 -14   2   10.13    1.72
   0 -14   2    9.96    0.74
   0  14  -1   10.79    1.42
   0  14  -1    7.95    1.11
   0  14  -1    6.83    1.17
   0 -14   1   10.55    1.05
   0  14   0    8.02    1.23
   0  14   0    6.28    1.48
   0 -14   0    9.41    1.51
   0 -14   0    9.20    1.29
   0  14   1    8.12    1.47
   0  14   1    5.32    1.77
   0 -14  -1   13.21    1.62
   0 -14  -1    7.72    1.29
   0  14   2   11.27    1.24
   0  14   2    9.04    2.08
   0 -14  -2    8.81    1.64
   0  14   3    5.22    0.81
   0  14   3   -0.67    1.42
   0 -14  -3    5.10    1.59
   0  14   4    1.70    0.49
   0  14   4   -0.81    1.37
   0  14   5   -2.38    1.50
   0  14   6   -1.90    1.61
   0  14   7   -2.13    1.71
   0 -14  -7   -0.68    2.29
   0  14   8   -2.61    1.84
   0 -14  -8    2.56    2.48
   0  14   9    0.57    1.93
   0 -14  -9   -2.86    2.60
   0  14  10    2.61    2.18
   0 -14 -10   -0.77    2.86
   0  14  11   -1.67    2.51
   0 -14 -11   -1.46    3.11
   0 -14 -12    4.41    3.39
   0 -16  13    0.73    3.92
   0 -16  12    4.27    4.04
   0 -16  11    4.47    3.81
   0 -16  10    7.25    3.60
   0 -16   9    2.89    2.92
   0 -16   8    7.18    2.85
   0 -16   7    6.02    2.39
   0 -16   6    3.03    1.84
   0 -16   5    0.90    1.54
   0  16  -4    3.78    1.51
   0 -16   4    0.66    1.38
   0  16  -3   -0.11    1.49
   0 -16   3   -1.11    1.16
   0 -16   3    1.18    0.51
   0  16  -2   -0.71    1.46
   0  16  -2    0.79    0.67
   0 -16   2    1.49    0.99
   0 -16   2    2.63    0.71
   0  16  -1   -0.27    1.33
   0  16  -1    0.91    0.98
   0 -16   1    0.13    1.58
   0 -16   1    2.94    0.98
   0  16   0    3.93    1.14
   0  16   0    2.83    1.00
   0 -16   0    4.23    1.38
   0 -16   0    3.38    1.35
   0  16   1    4.64    1.00
   0  16   1    1.89    1.25
   0 -16  -1    5.04    1.48
   0 -16  -1    2.45    1.62
   0  16   2    2.99    0.83
   0  16   2   -0.89    1.33
   0 -16  -2    1.70    1.39
   0  16   3   -3.15    1.42
   0  16   3   -0.86    1.46
   0 -16  -3   -1.79    2.14
   0  16   4   -3.12    1.51
   0 -16  -4   -2.20    1.75
   0 -16  -5   -5.64    2.18
   0 -16  -6   -6.67    2.48
   0  16   7   -4.11    1.92
   0 -16  -7   -2.43    2.58
   0  16   8   -5.83    2.12
   0 -16  -8   -3.94    2.88
   0  16   9    0.02    2.08
   0 -16  -9   -4.08    2.85
   0  16  10    1.53    2.22
   0 -16 -10   -4.62    2.98
   0  16  11   -3.59    2.77
   0 -16 -11   -3.74    3.42
   0 -16 -12   -1.45    3.36
   0 -18  12   -0.47    4.02
   0 -18  11    7.69    4.33
   0 -18  10    1.53    3.45
   0 -18   9    3.52    3.14
   0 -18   8   -2.22    2.69
   0 -18   7   -1.26    2.35
   0 -18   6    7.03    2.32
   0  18  -5    7.79    1.82
   0 -18   5    4.82    1.97
   0  18  -4    7.68    1.90
   0 -18   3    7.87    1.66
   0 -18   3   10.90    0.75
   0  18  -2   40.37    3.18
   0 -18   2   35.31    2.99
   0  18  -1   54.06    3.71
   0 -18   1   51.33    3.72
   0  18   0   53.25    3.67
   0  18   0   42.54    3.27
   0 -18   0   59.31    3.50
   0 -18   0   47.15    3.41
   0  18   1   44.62    3.05
   0  18   1   38.75    3.62
   0 -18  -1   45.76    2.85
   0  18   2   30.38    1.80
   0  18   2   21.30    3.32
   0 -18  -2   35.14    2.74
   0  18   3   16.58    1.14
   0  18   3    9.04    2.86
   0 -18  -3   20.99    2.43
   0  18   4    3.16    2.35
   0 -18  -4    3.01    2.00
   0  18   5    5.78    2.05
   0 -18  -5    5.87    2.35
   0  18   6    5.12    2.14
   0 -18  -6    4.67    2.57
   0  18   7    2.96    0.45
   0  18   7    1.19    2.11
   0 -18  -7    1.66    2.75
   0  18   8    0.93    2.17
   0 -18  -8    4.85    2.90
   0  18   9    0.92    2.20
   0 -18  -9    1.07    2.98
   0 -18 -10   -5.99    3.48
   0  18  11   -3.62    2.67
   0 -18 -11    4.16    3.32
   0 -18 -13    2.61    3.84
   0 -20  12   -3.90    4.76
   0 -20  11    6.29    4.51
   0 -20  10    1.14    3.69
   0 -20   9    6.76    3.55
   0 -20   8    7.00    3.14
   0 -20   7    6.34    2.72
   0 -20   6    3.32    2.19
   0  20  -5    3.69    1.72
   0 -20   5    2.05    1.84
   0  20  -4    2.25    1.74
   0 -20   4    4.13    1.65
   0  20  -3    4.47    1.66
   0 -20   3    3.61    1.87
   0 -20   3    2.14    0.67
   0  20  -2    1.45    1.74
   0  20  -2    4.72    0.86
   0 -20   2    4.44    1.70
   0 -20   2    4.11    1.06
   0  20  -1    2.48    1.57
   0  20  -1    4.02    1.18
   0 -20   1    5.53    1.31
   0 -20   1    3.92    1.34
   0  20   0    8.60    1.40
   0  20   0    5.83    1.24
   0 -20   0    8.24    1.74
   0 -20   0    9.14    1.82
   0  20   1    4.96    1.18
   0  20   1    3.70    1.41
   0 -20  -1    5.25    2.00
   0  20   2    2.52    1.02
   0  20   2    4.85    1.58
   0 -20  -2    4.18    1.63
   0  20   3    2.77    1.19
   0  20   3    0.91    1.70
   0 -20  -3    1.70    2.35
   0  20   4    3.18    0.78
   0  20   4    6.28    1.89
   0 -20  -4    1.14    2.00
   0  20   5    2.65    0.67
   0  20   5    1.38    2.06
   0 -20  -5    6.45    2.23
   0  20   6   -1.76    2.10
   0 -20  -6    4.54    2.37
   0  20   7    1.29    0.73
   0  20   7    5.09    2.23
   0 -20  -7    2.58    2.67
   0  20   8    1.59    0.61
   0  20   8    1.01    2.30
   0 -20  -8    4.96    2.89
   0  20   9    1.11    0.54
   0  20   9    1.20    2.37
   0 -20  -9    1.96    3.06
   0  20  10    1.37    2.61
   0 -20 -10   -4.81    3.27
   0  20  11    0.90    0.93
   0 -22  11  -10.85    5.18
   0 -22  10    0.28    3.78
   0 -22   9    0.80    3.23
   0 -22   8    0.86    2.81
   0 -22   6   -0.68    2.15
   0  22  -5    3.41    1.71
   0 -22   5   -2.12    1.93
   0  22  -4    0.42    1.77
   0 -22   4    2.34    2.24
   0  22  -3   -0.22    1.66
   0 -22   3    2.87    2.02
   0 -22   3    0.64    0.76
   0  22  -2   -3.75    2.27
   0  22  -2   -0.67    0.85
   0 -22   2   -3.14    1.58
   0 -22   2    0.29    1.03
   0  22  -1    1.01    1.54
   0  22  -1    0.79    1.15
   0 -22   1    3.36    1.40
   0 -22   1    0.39    1.35
   0 -22   1    1.02    1.37
   0  22   0    4.32    1.42
   0  22   0   -1.01    1.48
   0 -22   0   -0.29    1.59
   0 -22   0    1.10    1.69
   0  22   1   -0.17    1.51
   0  22   1   -1.81    1.77
   0 -22  -1    1.15    1.47
   0  22   2   -1.40    1.04
   0  22   2   -1.58    1.59
   0 -22  -2    0.07    1.69
   0  22   3    0.45    0.93
   0  22   3    0.64    1.75
   0 -22  -3   -1.80    1.80
   0  22   4    1.71    1.25
   0  22   4    0.63    2.05
   0 -22  -4    4.74    2.10
   0  22   5    0.40    0.79
   0  22   6   -0.76    1.02
   0  22   6   -2.58    2.32
   0 -22  -6   -3.26    2.54
   0  22   7   -0.51    0.92
   0  22   7   -1.90    2.40
   0 -22  -7   -2.32    2.71
   0  22   8    1.50    1.25
   0  22   8   -2.18    2.51
   0  22   9    0.54    0.91
   0  22  10   -0.20    1.47
   0  22  11    1.02    1.82
   0 -22 -11   -1.14    3.66
   0 -24  10    5.11    4.28
   0 -24   9    6.00    3.69
   0 -24   8    1.94    3.00
   0 -24   7    7.99    4.06
   0 -24   6   11.48    2.96
   0 -24   5   11.15    3.53
   0  24  -4   11.42    2.55
   0 -24   4   17.33    3.41
   0  24  -3    9.37    2.36
   0 -24   3   13.08    2.68
   0 -24   3   10.70    1.10
   0  24  -2   14.86    2.74
   0  24  -2   16.13    1.35
   0 -24   2   20.65    2.74
   0 -24   2   16.12    1.75
   0  24  -1   31.41    3.23
   0  24  -1   29.06    2.26
   0 -24   1   36.67    4.18
   0 -24   1   28.53    2.89
   0  24   0   57.35    5.16
   0  24   0   44.27    3.99
   0 -24   0   52.59    4.02
   0 -24   0   55.59    4.76
   0  24   1   20.67    2.31
   0 -24  -1   14.57    3.46
   0  24   2   20.27    1.89
   0  24   2   10.87    3.56
   0 -24  -2   24.13    3.01
   0  24   3   14.77    1.60
   0 -24  -4   14.26    3.18
   0  24   5   10.52    3.09
   0 -24  -5   10.51    3.15
   0  24   6    6.84    1.30
   0  24   6    9.60    3.08
   0 -24  -6    8.77    3.25
   0  24   7    6.85    1.60
   0  24   7    2.22    3.06
   0 -24  -7    6.15    3.29
   0  24   8    4.18    1.70
   0  24   8    5.65    3.26
   0 -24  -8   10.43    3.49
   0  24   9    4.85    1.85
   0  24   9    9.18    3.34
   0  24  10    2.65    2.56
   0 -26   9   -0.24    3.34
   0 -26   8    4.47    3.22
   0 -26   7    2.66    2.84
   0 -26   6    9.53    3.83
   0 -26   5    6.81    3.40
   0  26  -4    2.58    1.97
   0 -26   4    4.25    2.61
   0  26  -3    7.70    2.84
   0 -26   3    4.89    2.56
   0 -26   3    4.90    1.14
   0  26  -2    5.02    2.30
   0 -26   2   11.87    2.53
   0 -26   2    8.21    1.74
   0  26  -1   18.47    2.75
   0 -26   1   24.35    2.93
   0 -26   1   14.47    2.53
   0  26   0   24.75    2.74
   0  26   0   18.59    2.52
   0  26   1   22.07    2.41
   0 -26  -1   13.10    2.73
   0  26   2   11.27    1.67
   0  26   2    9.60    2.41
   0 -26  -2    8.39    2.54
   0  26   3    7.96    1.47
   0  26   3    4.39    2.48
   0 -26  -3    4.91    2.64
   0  26   4    6.25    1.42
   0  26   4    6.54    2.79
   0  26   5    9.49    3.16
   0 -26  -5    5.98    3.22
   0  26   6    6.71    1.57
   0 -26  -6   10.17    3.46
   0  26   7    3.68    3.14
   0 -26  -7   -2.67    3.19
   0  26   9    1.97    1.66
   0 -28   8   -0.37    3.87
   0 -28   7   -2.43    5.03
   0 -28   6    0.52    3.29
   0 -28   5   -1.99    2.87
   0  28  -4    2.33    1.85
   0 -28   4   -3.29    2.59
   0  28  -3    2.42    1.90
   0 -28   3   -1.14    2.40
   0 -28   3    0.39    0.80
   0  28  -2   -1.24    1.84
   0 -28   2    1.37    2.28
   0 -28   2    1.22    1.21
   0  28  -1   -1.32    1.85
   0  28  -1    0.81    0.86
   0 -28   1   -0.15    2.27
   0  28   0    3.50    1.77
   0 -28   0   -1.95    2.15
   0  28   1    1.78    1.73
   0  28   1    3.81    1.57
   0  28   2   -1.16    1.58
   0 -28  -2    0.85    2.08
   0  28   3   -0.04    1.35
   0  28   4   -1.30    1.43
   0  28   4   -3.21    2.66
   0 -28  -4   -3.62    2.67
   0  28   5   -0.06    3.02
   0 -28  -5    6.24    3.28
   0  28   6    2.10    3.24
   0 -28  -6   -5.18    3.54
   0  28   8    0.30    1.77
   0 -30   6    7.41    3.63
   0 -30   5   -3.55    3.17
   0  30  -4    1.12    1.91
   0 -30   4    0.16    2.80
   0  30  -3   -0.94    1.95
   0 -30   3   -4.68    3.57
   0 -30   3    0.20    0.78
   0  30  -2   -5.07    2.60
   0 -30   2    2.44    2.68
   0 -30   2    3.34    1.40
   0  30  -1   -0.97    1.86
   0 -30   1   -0.42    1.82
   0  30   0    4.51    2.63
   0  30   0    2.66    1.13
   0 -30   0    2.32    1.73
   0  30   1    6.47    1.98
   0 -30  -1    4.46    2.12
   0 -30  -1    5.85    2.84
   0  30   2    3.30    1.76
   0  30   2   -0.17    1.93
   0  30   3    0.98    1.74
   0  30   3    1.18    2.36
   0 -30  -3    3.53    2.64
   0  30   4    1.22    2.75
   0  30   5    2.66    3.13
   0 -30  -5    0.69    3.27
   0  30   6   -4.37    3.73
   0 -32   4    2.03    3.17
   0  32  -3    2.91    1.93
   0 -32   3    0.66    3.14
   0  32  -2    5.52    2.14
   0 -32   2    4.46    1.56
   0 -32   2    4.67    1.57
   0  32  -1    7.70    2.07
   0 -32   1    3.52    1.44
   0  32   0    5.73    2.14
   0  32   1   11.07    2.83
   0  32   1    2.31    1.46
   0 -32  -1    4.17    2.32
   0  32   2    6.75    2.15
   0 -32  -2    3.77    2.67
   0 -32  -2    4.62    2.68
   0  32   3    5.90    2.11
   0 -32  -3    0.02    2.89
   1 -33  -1   -0.15    2.11
   1 -33   0    0.67    1.83
   1 -33   1    0.98    2.13
   1 -31  -5    1.23    3.19
  -1  31   5    1.01    1.33
  -1  31   5   -4.57    3.16
   1 -31  -4   -5.32    3.85
  -1  31   4    2.77    2.79
   1 -31  -3   -1.74    2.55
   1 -31  -3    3.38    2.54
  -1  31   3    2.39    1.32
  -1  31   3    4.32    2.51
   1 -31  -2    1.64    2.96
  -1  31   2   -0.21    1.49
  -1  31   1    2.26    1.66
   1 -31   0    2.61    2.23
  -1  31   0    0.12    1.71
  -1  31   0    0.35    1.07
   1 -31   1    0.22    1.70
  -1  31  -1    1.15    1.88
  -1  31  -1   -0.11    1.12
   1 -31   2    1.81    1.51
  -1  31  -2    1.09    1.94
   1 -31   3    2.05    3.00
  -1  31  -3   -3.91    2.11
   1 -31   4   -3.91    3.02
  -1  31  -4   -1.94    2.08
   1 -31   5   -1.32    3.04
  -1  29   7    3.28    1.46
  -1  29   6    5.44    3.58
   1 -29  -5    1.55    2.97
  -1  29   5    2.43    3.05
  -1  29   4    9.32    3.20
   1 -29  -3    4.06    3.41
  -1  29   3    3.04    1.28
  -1  29   3    5.13    2.52
   1 -29  -2    4.16    2.41
   1 -29  -2    5.90    2.40
  -1  29   2    5.03    1.40
  -1  29   2    4.02    2.18
   1 -29  -1    4.86    2.16
  -1  29   1    5.95    1.73
  -1  29   1    2.50    1.81
   1 -29   0    3.27    2.01
  -1  29   0   11.23    2.04
   1 -29   1    1.36    1.80
  -1  29  -1    5.33    2.00
  -1  29  -1    2.64    0.93
   1 -29   2    2.26    2.64
   1 -29   2    2.45    1.52
  -1  29  -2    5.62    2.10
  -1  29  -2    0.55    1.00
   1 -29   3    4.41    2.64
   1 -29   3    1.82    0.95
  -1  29  -3    1.78    2.12
   1 -29   4   -0.71    2.65
  -1  29  -4   -0.18    2.16
   1 -29   5    2.58    2.84
  -1  29  -5    0.66    2.18
   1 -29   6    2.40    3.10
   1 -29   7    6.11    3.59
  -1  27   9   -1.61    1.86
  -1  27   8    1.00    1.10
  -1  27   7    4.29    3.36
   1 -27  -6   -0.27    2.96
   1 -27  -5    4.57    2.86
  -1  27   5    1.71    2.89
   1 -27  -4    3.92    3.64
  -1  27   4    3.07    1.07
  -1  27   4    7.35    2.67
   1 -27  -3   -0.12    2.41
  -1  27   3    2.79    1.11
  -1  27   3    2.02    2.31
  -1  27   2    3.82    1.29
   1 -27  -1   -2.53    2.74
  -1  27   1    6.32    1.45
   1 -27   0    5.53    2.60
  -1  27   0   12.52    2.05
  -1  27   0    8.17    2.02
   1 -27   1    2.90    1.84
  -1  27  -1    0.63    1.92
  -1  27  -1    4.10    1.33
   1 -27   2    4.96    2.23
   1 -27   2    3.64    1.45
  -1  27  -2   -4.26    2.79
  -1  27  -2    2.55    1.04
   1 -27   3    0.58    2.42
  -1  27  -3   -5.69    2.14
   1 -27   4    0.41    2.52
  -1  27  -4    4.89    2.26
   1 -27   5    5.85    2.83
  -1  27  -5    2.70    2.20
   1 -27   6    2.48    2.93
   1 -27   7    2.22    3.48
   1 -27   8    0.79    3.77
  -1  25  10    0.67    1.84
  -1  25   9   -0.75    1.36
   1 -25  -8    1.24    3.30
  -1  25   8    0.58    0.85
   1 -25  -7    2.35    2.99
  -1  25   7   -0.21    0.88
  -1  25   7   -0.97    2.79
   1 -25  -6   -0.80    2.91
  -1  25   6    1.98    0.71
  -1  25   6    0.01    2.81
   1 -25  -5   -3.19    2.60
  -1  25   5    0.02    0.79
  -1  25   5   -3.09    2.56
   1 -25  -4    1.29    2.37
  -1  25   4    1.40    1.22
  -1  25   4    2.08    2.38
  -1  25   3    2.98    1.01
  -1  25   3   -0.85    2.19
   1 -25  -2    4.42    2.03
  -1  25   2    2.36    1.15
  -1  25   2    1.35    1.98
  -1  25   1    3.35    1.32
  -1  25   1    2.97    1.69
   1 -25   0    1.45    1.55
  -1  25   0    0.43    1.41
  -1  25   0    3.97    1.31
   1 -25   1    4.30    1.88
   1 -25   1    3.05    1.71
  -1  25  -1   -1.81    1.80
  -1  25  -1    3.55    1.31
   1 -25   2   -4.36    2.61
   1 -25   2    1.63    1.34
  -1  25  -2    6.01    1.92
  -1  25  -2    2.29    0.96
   1 -25   3    5.72    2.00
   1 -25   3    1.19    0.96
  -1  25  -3   -3.05    2.15
  -1  25  -3    1.20    0.75
   1 -25   4   -1.30    2.21
  -1  25  -4    0.91    1.95
   1 -25   5   -1.64    2.73
  -1  25  -5   -3.18    2.08
   1 -25   6   -0.11    2.84
   1 -25   7    0.51    3.26
   1 -25   8    7.50    4.18
   1 -25   9    3.37    3.45
  -1  23  11   -0.09    0.82
  -1  23  10    0.86    0.65
  -1  23   9    0.66    0.51
   1 -23  -8   -4.65    3.12
  -1  23   8    1.43    2.67
   1 -23  -7   -0.70    2.91
  -1  23   7   -1.06    0.73
   1 -23  -6   -1.56    2.67
  -1  23   6    1.23    0.67
  -1  23   6    3.69    2.47
   1 -23  -5   -4.31    3.47
  -1  23   5    4.33    0.92
   1 -23  -4   -1.09    2.21
   1 -23  -3   -0.03    2.07
  -1  23   3    2.65    1.26
  -1  23   3    3.86    2.01
  -1  23   2    4.17    1.09
  -1  23   2    5.12    1.88
   1 -23  -1    1.46    2.21
  -1  23   1    2.34    1.18
  -1  23   1    2.61    2.09
   1 -23   0   -0.16    1.96
  -1  23   0    3.61    1.36
  -1  23   0    2.59    1.76
   1 -23   1    3.71    1.90
   1 -23   1    1.43    1.19
  -1  23  -1    3.80    1.66
  -1  23  -1    0.49    1.31
   1 -23   2    1.16    1.57
   1 -23   2    0.81    1.48
  -1  23  -2    0.65    1.74
  -1  23  -2    0.64    0.88
   1 -23   3    1.42    1.78
   1 -23   3    1.64    1.12
  -1  23  -3    1.86    1.94
  -1  23  -3    1.19    0.69
   1 -23   4    4.27    2.25
  -1  23  -4    1.25    2.00
   1 -23   5    1.28    2.43
  -1  23  -5    1.41    2.00
   1 -23   6   -0.04    2.64
   1 -23   7    0.55    2.34
   1 -23   8    4.81    2.92
   1 -23   9   -0.07    3.10
   1 -23  10   -0.94    3.64
  -1  21  11   -0.11    0.15
   1 -21 -10    1.14    3.40
  -1  21  10    0.28    0.15
  -1  21   9    0.11    0.19
  -1  21   9   -2.30    2.45
   1 -21  -8    1.06    2.94
  -1  21   8    0.35    0.21
   1 -21  -7    1.30    2.83
  -1  21   7    2.13    0.44
  -1  21   7    4.35    2.38
   1 -21  -6    7.21    2.86
  -1  21   6    6.79    2.53
   1 -21  -5    6.58    2.50
  -1  21   5    4.18    2.33
   1 -21  -4    2.42    2.16
  -1  21   4    5.29    2.11
   1 -21  -3    3.92    1.94
  -1  21   3    2.19    1.93
   1 -21  -2    4.91    1.86
  -1  21   2    6.99    1.10
  -1  21   2    3.73    2.54
   1 -21  -1   16.99    2.04
  -1  21   1   13.33    1.51
  -1  21   1    8.98    2.62
   1 -21   0   21.96    1.95
  -1  21   0   17.59    1.82
  -1  21   0   13.76    2.43
   1 -21   1    9.35    2.78
   1 -21   1    9.09    1.71
  -1  21  -1    8.84    1.64
  -1  21  -1    6.91    1.51
  -1  21  -1    9.39    1.19
   1 -21   2    5.79    1.51
   1 -21   2    5.86    1.12
  -1  21  -2    7.70    1.84
  -1  21  -2    3.58    1.01
   1 -21   3    2.85    1.66
   1 -21   3    4.47    1.08
  -1  21  -3    0.32    1.93
  -1  21  -3    3.50    0.77
   1 -21   4    4.02    2.10
  -1  21  -4    2.27    1.93
   1 -21   5    1.27    1.87
  -1  21  -5    6.58    2.03
   1 -21   6    5.89    2.23
   1 -21   7    8.20    2.67
   1 -21   8    3.15    2.75
  -1  19  11   -0.68    2.63
  -1  19  10    1.41    2.44
   1 -19  -9   -1.21    2.85
  -1  19   9    0.40    2.24
   1 -19  -8   -4.73    2.75
  -1  19   8    0.73    2.20
   1 -19  -7   -5.97    2.62
  -1  19   7   -1.48    2.17
   1 -19  -6   -5.08    2.32
  -1  19   6   -2.21    2.04
  -1  19   6   -0.74    2.05
   1 -19  -5   -3.78    2.12
  -1  19   5   -3.95    1.97
   1 -19  -4    0.48    1.83
  -1  19   4   -3.18    2.32
   1 -19  -3   -2.55    1.77
  -1  19   3   -4.22    1.72
   1 -19  -2    0.32    1.46
  -1  19   2   -0.45    0.86
  -1  19   2   -0.84    1.45
   1 -19  -1   -2.33    1.73
  -1  19   1    1.23    1.00
  -1  19   1    0.67    1.29
   1 -19   0    0.15    1.60
   1 -19   0    3.37    1.45
  -1  19   0   -1.35    1.09
  -1  19   0    1.83    1.11
   1 -19   1    0.85    1.54
   1 -19   1    0.15    1.24
  -1  19  -1   -0.42    1.23
  -1  19  -1    3.03    1.22
   1 -19   2   -3.17    1.66
   1 -19   2    0.27    0.85
  -1  19  -2   -1.09    1.51
  -1  19  -2   -0.21    0.88
   1 -19   3    0.66    1.47
   1 -19   3    1.00    0.71
  -1  19  -3   -0.60    1.65
  -1  19  -3    0.31    0.65
   1 -19   4   -0.75    1.34
  -1  19  -4   -1.14    1.71
   1 -19   5    2.77    2.28
  -1  19  -5    3.99    1.89
   1 -19   6   -1.82    1.85
   1 -19   8    3.19    2.71
   1 -19   9    2.63    3.11
   1 -19  10    1.96    3.58
   1 -19  11    4.23    4.22
   1 -19  12    6.45    4.74
   1 -17 -10    0.04    2.90
  -1  17  10   -0.23    2.25
   1 -17  -9   -0.31    2.87
  -1  17   9   -3.56    2.19
  -1  17   8    0.03    1.96
   1 -17  -7   -2.62    2.33
  -1  17   7    0.45    1.89
  -1  17   7   -0.79    1.92
   1 -17  -6    0.86    2.11
  -1  17   6    0.92    0.32
  -1  17   6    1.52    1.83
   1 -17  -5   -0.42    2.54
  -1  17   5   -1.32    1.71
   1 -17  -4    0.39    1.63
  -1  17   4    0.48    0.79
  -1  17   4   -3.62    1.53
   1 -17  -3    3.09    1.69
  -1  17   3    4.62    1.25
  -1  17   3    3.64    1.83
   1 -17  -2   -1.35    2.04
  -1  17   2    5.51    1.69
   1 -17  -1    5.61    1.50
  -1  17   1   10.92    1.20
  -1  17   1    8.11    2.32
   1 -17   0   12.31    1.84
   1 -17   0   10.16    1.71
  -1  17   0    8.69    1.37
  -1  17   0    8.16    2.02
   1 -17   1    9.85    1.80
   1 -17   1    9.00    1.40
  -1  17  -1    6.76    1.48
  -1  17  -1    9.84    1.62
   1 -17   2    6.82    2.16
   1 -17   2    6.87    0.97
  -1  17  -2    4.80    1.73
  -1  17  -2    8.33    1.17
   1 -17   3   -1.62    2.07
  -1  17  -3   -1.61    1.63
   1 -17   4    0.24    1.69
  -1  17  -4    2.34    1.68
  -1  17  -5    2.35    1.72
   1 -17   6    9.67    2.18
   1 -17   7   15.13    3.86
   1 -17   8   -0.92    2.51
   1 -17   9    8.46    3.42
   1 -17  10   -0.84    3.37
   1 -17  11    3.16    3.90
   1 -17  12   -1.94    4.04
  -1  15  13    1.46    3.19
   1 -15 -11    0.12    3.04
   1 -15 -10    4.25    2.86
  -1  15  10    1.47    2.24
   1 -15  -9   -0.58    2.59
  -1  15   9    0.03    1.98
   1 -15  -8    2.10    2.67
  -1  15   8    3.49    2.01
   1 -15  -7   12.23    2.85
  -1  15   7    9.85    2.28
   1 -15  -6   16.80    2.97
  -1  15   6   18.28    2.48
   1 -15  -5   17.30    2.51
  -1  15   5   12.98    2.19
   1 -15  -4   10.75    1.95
  -1  15   4    9.56    0.93
  -1  15   4    8.76    2.07
   1 -15  -3   41.52    2.89
  -1  15   3   30.54    1.93
  -1  15   3   30.39    4.01
   1 -15  -2   66.61    4.38
  -1  15   2   77.36    3.56
  -1  15   2   74.21    5.01
   1 -15  -1   69.14    3.70
  -1  15   1   73.11    3.19
  -1  15   1   61.82    3.69
   1 -15   0  101.96    5.25
   1 -15   0   76.89    3.70
  -1  15   0   84.43    4.26
  -1  15   0   79.51    4.80
   1 -15   1   85.74    6.66
   1 -15   1   77.53    3.79
  -1  15  -1   82.48    4.33
   1 -15   2   56.61    2.56
  -1  15  -2   50.10    2.28
   1 -15   3   14.93    2.32
   1 -15   3   14.15    0.90
  -1  15  -3   20.23    2.25
  -1  15  -3   16.30    0.94
  -1  15  -4   18.63    2.41
   1 -15   5    8.60    2.02
  -1  15  -5   23.53    2.30
   1 -15   6   14.83    2.45
   1 -15   7    3.64    2.20
   1 -15   8   11.86    3.06
   1 -15   9    6.95    3.20
   1 -15  10   -3.84    3.28
   1 -15  11    4.03    3.68
   1 -15  12    4.62    3.95
   1 -15  13    4.40    4.12
  -1  13  13    0.24    3.01
  -1  13  12    1.62    2.68
   1 -13 -11   -1.42    2.85
  -1  13  11   -1.42    2.41
   1 -13 -10   -1.26    2.54
  -1  13  10    1.79    2.08
   1 -13  -9    0.81    2.40
  -1  13   8   -0.49    1.86
   1 -13  -7   -5.25    2.14
  -1  13   7   -0.08    1.64
   1 -13  -6   -4.48    2.07
   1 -13  -5    0.57    1.67
  -1  13   5   -1.38    1.54
   1 -13  -4   -0.83    1.45
  -1  13   4    1.22    1.49
   1 -13  -3    0.50    1.33
  -1  13   3    2.70    0.91
  -1  13   3   -0.23    1.44
   1 -13  -2    4.33    1.25
  -1  13   2    6.44    0.90
  -1  13   2    1.91    1.21
   1 -13  -1   15.05    1.98
  -1  13   1   18.22    1.30
   1 -13   0   27.93    1.51
  -1  13   0   22.81    1.81
  -1  13   0   26.34    1.69
   1 -13   1   10.03    1.60
   1 -13   1    5.22    1.03
  -1  13  -1    7.37    1.30
  -1  13  -1    4.99    1.15
   1 -13   2    3.00    1.79
   1 -13   2    2.85    0.72
  -1  13  -2    1.58    1.27
  -1  13  -2    4.04    0.78
   1 -13   3    0.10    1.54
  -1  13  -3    1.70    1.52
  -1  13  -3    3.01    0.63
   1 -13   4   -1.68    1.63
  -1  13  -4    1.05    1.42
   1 -13   5   -0.55    1.27
  -1  13  -5   -0.24    1.26
   1 -13   6    2.85    1.61
   1 -13   7   -3.46    1.93
   1 -13   8    1.17    2.15
  -1  13  -8   -0.04    0.71
  -1  13  -8   -0.31    0.66
   1 -13   9   -4.44    2.52
  -1  13  -9    0.38    0.74
  -1  13  -9    0.20    0.74
   1 -13  10    0.06    2.76
  -1  13 -10    0.11    1.03
  -1  13 -10   -0.41    0.68
   1 -13  11    5.14    3.04
  -1  13 -11    0.29    0.89
  -1  13 -11    0.42    1.12
   1 -13  12    2.40    3.43
  -1  13 -12    1.93    0.97
  -1  13 -12    2.64    1.12
   1 -13  13    2.85    3.41
  -1  13 -13    0.57    0.49
  -1  13 -13   -0.93    1.31
  -1  11  13   -6.09    3.45
   1 -11 -12   -1.30    2.72
  -1  11  12    0.42    2.53
  -1  11  11    0.21    2.25
   1 -11 -10    5.16    2.35
  -1  11  10   -2.83    2.00
   1 -11  -9   -2.87    2.27
  -1  11   9   -1.65    1.86
   1 -11  -8   -5.00    2.22
  -1  11   8   -1.42    1.75
   1 -11  -7   -3.69    2.02
  -1  11   7   -4.33    1.62
   1 -11  -6   -2.88    1.79
  -1  11   6   -1.61    1.63
   1 -11  -5   -2.99    1.59
  -1  11   5   -2.21    1.48
   1 -11  -4    3.64    1.46
  -1  11   4    2.20    1.44
   1 -11  -3    1.37    1.20
  -1  11   3    0.48    1.08
   1 -11  -2    0.85    1.03
  -1  11   2    0.53    0.75
  -1  11   2    0.79    0.98
   1 -11  -1    3.39    1.36
  -1  11   1    6.68    1.52
  -1  11   1    3.07    1.02
   1 -11   0    7.78    1.35
   1 -11   0    4.71    0.84
  -1  11   0    5.81    0.94
   1 -11   1    4.74    1.51
   1 -11   1    2.67    0.78
  -1  11  -1    1.25    1.10
  -1  11  -1    2.52    0.90
   1 -11   2    0.20    1.22
   1 -11   2    0.40    0.61
  -1  11  -2    1.38    1.10
  -1  11  -2   -0.85    0.68
   1 -11   3    0.19    1.43
   1 -11   3    0.81    0.44
  -1  11  -3    3.35    1.36
   1 -11   4   -2.25    1.45
  -1  11  -4    1.57    1.25
   1 -11   5    0.41    1.12
  -1  11  -5   -0.05    1.11
  -1  11  -5    0.62    0.42
   1 -11   6    0.05    1.41
  -1  11  -6    0.80    0.49
  -1  11  -6    0.16    0.45
  -1  11  -7   -0.22    0.55
  -1  11  -7   -0.11    0.62
  -1  11  -8    0.27    0.80
  -1  11  -8    0.29    0.75
   1 -11   9   14.87    3.42
  -1  11  -9    1.34    1.20
   1 -11  10    2.02    3.46
  -1  11 -10   -0.61    1.02
  -1  11 -10    0.22    0.97
   1 -11  11    6.19    3.84
  -1  11 -11   -0.11    1.12
  -1  11 -11    0.27    1.22
  -1  11 -12    0.35    1.12
  -1  11 -12    2.47    1.48
   1 -11  13   -0.91    3.27
  -1  11 -13    1.73    1.00
  -1  11 -13   -0.67    1.74
   1 -11  14    0.57    3.01
  -1  11 -14    0.80    0.83
  -1  11 -14    0.65    1.96
  -1   9  14   -0.30    3.31
  -1   9  13   -1.58    3.10
   1  -9 -12    0.33    2.61
  -1   9  12    2.76    2.60
   1  -9 -11    4.53    2.62
  -1   9  11    4.87    2.51
   1  -9 -10    1.44    2.16
  -1   9  10   -1.42    1.95
   1  -9  -9    0.57    2.07
  -1   9   9    0.34    1.70
   1  -9  -8    4.42    2.28
  -1   9   8    8.43    1.86
   1  -9  -7    5.06    1.96
  -1   9   7    3.95    1.55
   1  -9  -6   33.67    3.29
  -1   9   6   31.82    3.05
   1  -9  -5   16.82    2.23
  -1   9   5   18.19    2.06
   1  -9  -4    6.33    1.55
  -1   9   4    6.96    1.28
   1  -9  -3    6.08    1.36
  -1   9   3    5.09    1.19
   1  -9  -2   59.80    3.03
  -1   9   2   64.67    3.12
   1  -9  -1   17.72    1.40
  -1   9   1   19.76    1.40
   1  -9   0  152.80    7.85
   1  -9   0  153.89    5.82
  -1   9   0  154.80    6.92
  -1   9   0  167.05    6.40
   1  -9   1   35.21    2.55
  -1   9  -1   31.09    2.01
  -1   9  -1   26.80    1.37
  -1   9  -2   72.68    3.76
  -1   9  -2   72.58    2.35
  -1   9  -3    4.12    1.56
  -1   9  -3    9.00    0.55
   1  -9   4    6.10    1.61
  -1   9  -4    7.60    1.41
   1  -9   5   20.58    2.23
  -1   9  -5   16.34    0.87
   1  -9   6   25.96    2.55
  -1   9  -6   26.29    1.43
   1  -9   7    1.72    1.69
  -1   9  -7    1.25    0.78
   1  -9   8    7.82    2.36
  -1   9  -8    2.53    1.02
   1  -9   9    4.41    2.42
  -1   9  -9    0.02    1.18
   1  -9  10   -0.07    2.70
  -1   9 -10    1.72    1.23
   1  -9  11    6.74    3.00
  -1   9 -11    0.30    1.30
   1  -9  12    0.79    2.77
  -1   9 -12    1.93    1.33
   1  -9  13    2.51    2.66
  -1   9 -13    1.96    1.36
   1  -9  14    7.84    3.73
  -1   9 -14    0.87    0.93
   1  -7 -15    2.06    2.79
   1  -7 -14   -0.75    2.67
  -1   7  13    4.02    3.22
   1  -7 -12   -2.66    2.44
  -1   7  12   -2.23    2.66
   1  -7 -11   -1.61    2.24
  -1   7  11    4.18    2.23
   1  -7 -10   -3.03    2.12
  -1   7  10   -0.72    2.01
   1  -7  -9   -1.88    1.88
  -1   7   9    1.47    1.64
   1  -7  -8   -4.11    1.81
  -1   7   8    0.50    1.54
   1  -7  -7   -3.04    2.16
  -1   7   7    0.93    1.32
   1  -7  -6   10.14    1.86
  -1   7   6    3.53    1.72
   1  -7  -5    0.54    1.38
  -1   7   5    1.02    1.31
   1  -7  -4    3.62    1.29
  -1   7   4    1.70    1.09
   1  -7  -3    5.11    1.24
  -1   7   3    5.60    1.15
   1  -7  -2   10.88    1.26
  -1   7   2   13.27    1.26
   1  -7  -1   13.49    1.20
  -1   7   1   18.83    1.26
  -1   7   1   15.25    1.22
   1  -7   0   82.20    4.23
   1  -7   0  106.24    3.94
  -1   7   0  100.18    4.68
  -1   7   0   90.04    3.84
   1  -7   1   15.36    1.82
  -1   7  -1   16.45    1.44
  -1   7  -1   12.21    0.89
   1  -7   2   13.63    1.63
  -1   7  -2   13.84    1.42
  -1   7  -2   13.05    0.67
   1  -7   3    3.92    1.38
  -1   7  -3    7.48    1.33
   1  -7   4    5.58    1.36
  -1   7  -4    4.22    0.59
  -1   7  -4    4.98    0.63
   1  -7   5    2.11    1.52
  -1   7  -5    1.76    0.80
   1  -7   6    5.20    2.28
  -1   7  -6    5.04    1.05
   1  -7   7    1.27    1.67
  -1   7  -7    0.05    0.86
   1  -7   8    3.60    1.95
  -1   7  -8   -0.03    1.03
   1  -7   9   -1.37    2.15
  -1   7  -9   -0.20    1.17
   1  -7  10    1.99    2.43
  -1   7 -10    1.29    1.05
   1  -7  11    9.24    2.66
  -1   7 -11   -0.88    1.50
   1  -7  12    4.62    3.31
  -1   7 -12    0.87    1.51
   1  -7  13    3.28    2.61
  -1   7 -13   -1.48    1.51
   1  -7  14    0.88    2.55
  -1   7 -14    1.86    1.56
   1  -5 -15    1.53    2.57
   1  -5 -14    6.69    2.77
   1  -5 -13    0.06    2.43
   1  -5 -12    5.40    2.27
  -1   5  12   -0.41    2.59
   1  -5 -11    2.39    2.13
   1  -5 -10    1.16    1.91
  -1   5  10   -0.35    1.93
   1  -5  -9    1.78    1.85
  -1   5   9    2.56    2.33
   1  -5  -8    0.37    1.69
  -1   5   8    2.69    1.54
   1  -5  -7    1.39    2.04
  -1   5   7    0.54    1.32
   1  -5  -6    0.71    1.61
  -1   5   6    4.08    1.58
   1  -5  -5    3.83    1.37
  -1   5   5    2.60    1.34
   1  -5  -4    4.99    1.35
  -1   5   4    6.70    1.15
   1  -5  -3    9.87    1.34
  -1   5   3    8.79    1.21
   1  -5  -2   18.26    1.35
  -1   5   2   17.46    1.33
   1  -5  -1   16.56    1.09
  -1   5   1   15.78    1.13
   1  -5   0   47.68    2.06
   1  -5   0   45.15    1.83
   1  -5   1   17.80    1.25
   1  -5   1   12.46    0.84
  -1   5  -1   15.09    1.25
  -1   5  -1   13.39    0.77
   1  -5   2   21.72    1.68
   1  -5   2   20.29    0.97
  -1   5  -2   24.66    1.70
  -1   5  -2   19.73    0.83
   1  -5   3   14.52    1.49
  -1   5  -3   12.08    1.30
   1  -5   4    7.45    2.08
  -1   5  -4    8.95    0.91
   1  -5   5    3.49    1.25
  -1   5  -5    1.95    0.89
   1  -5   6    5.59    2.24
  -1   5  -6    3.95    1.30
   1  -5   7    3.78    2.30
  -1   5  -7    2.19    1.10
   1  -5   8    6.63    2.68
  -1   5  -8    3.49    1.33
   1  -5   9    4.29    2.70
  -1   5  -9   -0.48    0.99
   1  -5  10    0.49    2.92
  -1   5 -10    0.23    1.47
   1  -5  11    3.44    2.15
  -1   5 -11    3.39    1.78
   1  -5  12   -1.09    2.23
  -1   5 -12    1.88    1.32
   1  -5  13   -0.14    2.46
  -1   5 -13   -0.31    1.75
   1  -5  14    6.18    3.47
  -1   5 -14   -0.46    1.31
  -1   5 -15    0.54    1.80
   1  -3 -15    1.14    2.36
  -1   3  14    7.57    3.74
   1  -3 -13   16.19    3.23
  -1   3  13   18.52    4.19
   1  -3 -12    7.13    2.33
  -1   3  11   10.60    2.72
   1  -3 -10   19.99    2.86
  -1   3  10   23.76    3.02
   1  -3  -9   32.37    3.16
  -1   3   9   30.25    3.17
   1  -3  -8   30.22    2.82
  -1   3   8   29.43    2.65
   1  -3  -7   15.79    2.62
  -1   3   7   14.61    1.81
   1  -3  -6  278.92   19.54
  -1   3   6  291.05   20.74
   1  -3  -5  123.23    6.62
  -1   3   5  129.36    6.91
   1  -3  -4  110.17    5.26
  -1   3   4  103.96    4.83
   1  -3  -3  108.48    4.92
  -1   3   3  108.58    4.64
   1  -3  -2  241.92   10.74
  -1   3   2  247.40   11.23
   1  -3   1  140.94    4.88
   1  -3   1  145.60    4.14
  -1   3  -1  159.67    5.16
  -1   3  -1  150.29    4.49
   1  -3   2  321.65   16.72
  -1   3  -2  312.88   16.23
  -1   3  -2  319.39   14.63
   1  -3   3  161.98    7.45
  -1   3  -3  138.67    6.15
   1  -3   4  130.86    6.22
  -1   3  -4  135.13    6.18
   1  -3   5  138.91    7.40
  -1   3  -5  135.20    6.82
   1  -3   6  321.85   28.09
  -1   3  -6  347.85   25.70
   1  -3   7   19.72    2.77
  -1   3  -7   16.68    1.90
   1  -3   8   27.95    3.59
  -1   3  -8   25.87    1.92
   1  -3   9   33.15    4.35
  -1   3  -9   29.79    2.25
   1  -3  10   17.26    3.05
  -1   3 -10   22.07    2.68
   1  -3  11    7.28    2.26
   1  -3  12   12.50    3.13
  -1   3 -12    3.30    2.29
   1  -3  13    8.00    2.43
  -1   3 -13    0.08    1.67
   1  -3  14    3.99    2.57
  -1   3 -14    3.03    2.20
   1  -3  15    3.50    3.36
  -1   3 -15   -0.46    1.59
  -1   1  15   -2.21    2.04
   1  -1 -14    3.70    2.29
   1  -1 -13   21.25    3.55
  -1   1  13   30.43    4.79
   1  -1 -12   12.66    2.48
   1  -1 -11    4.72    2.06
  -1   1  11   10.39    2.52
   1  -1 -10   48.78    4.41
  -1   1  10   71.62    6.64
   1  -1  -9   35.83    3.09
  -1   1   9   34.19    3.33
   1  -1  -8   14.68    1.81
  -1   1   8    2.83    1.77
   1  -1  -7    3.60    1.80
  -1   1   7   32.09    1.98
   1  -1  -5   18.26    1.85
  -1   1   5    3.31    1.42
   1  -1  -4   -0.09    0.98
  -1   1   4    0.47    0.90
   1  -1  -3    1.30    0.83
  -1   1   3    0.65    0.81
   1  -1  -2    0.85    0.60
  -1   1   2    0.05    0.60
   1  -1   2    0.38    0.63
  -1   1  -2    0.79    0.35
  -1   1  -2    0.31    0.41
   1  -1   3    0.45    0.66
  -1   1  -3    3.14    1.23
   1  -1   4   10.17    1.71
  -1   1  -4    3.48    1.10
   1  -1   5    7.08    1.91
  -1   1  -5    6.88    1.23
   1  -1   6   30.73    3.97
  -1   1  -6   39.12    2.98
   1  -1   7   15.27    3.56
  -1   1  -7   48.14    3.12
   1  -1   8    3.02    1.78
  -1   1  -8    8.12    1.50
   1  -1   9    4.99    1.54
   1  -1   9   11.04    2.07
   1  -1  10    9.98    2.11
   1  -1  10   13.25    1.61
  -1   1 -10    9.43    1.93
   1  -1  11   11.50    3.22
  -1   1 -11   23.80    2.37
   1  -1  12    3.21    1.93
  -1   1 -12    1.00    1.76
   1  -1  13    7.68    2.47
  -1   1 -13    6.21    2.18
   1  -1  14    3.55    3.14
  -1   1 -14    3.49    1.89
   1  -1  15    3.79    2.44
  -1   1 -15    2.39    1.88
  -1  -1  15    1.11    3.43
   1   1 -14    6.24    2.02
  -1  -1  14   -1.75    2.16
   1   1 -12    9.53    2.15
  -1  -1  12    6.49    2.74
   1   1 -11    4.69    1.80
  -1  -1  11    3.31    3.08
   1   1 -10   25.84    3.60
  -1  -1  10   25.98    3.03
   1   1  -9   24.56    2.31
  -1  -1   9   18.56    2.48
   1   1  -8   18.70    2.04
  -1  -1   8   28.24    2.94
   1   1  -7    9.31    1.50
  -1  -1   7   14.75    1.59
  -1  -1   7    8.78    1.55
   1   1  -5    1.30    1.07
  -1  -1   5   18.66    1.72
   1   1  -4    1.47    0.88
  -1  -1   4    8.98    1.21
   1   1  -3    0.57    0.64
  -1  -1   3    0.50    0.64
   1   1  -2    0.85    0.64
  -1  -1   2    0.99    0.61
   1   1   2    1.11    0.92
  -1  -1  -2    1.46    0.87
   1   1   3    0.75    1.15
  -1  -1  -3    2.08    1.53
   1   1   4   10.65    2.23
  -1  -1  -4   13.47    2.11
   1   1   5   20.32    2.33
  -1  -1  -5    5.81    1.74
   1   1   6   22.18    2.80
  -1  -1  -6   37.84    2.63
   1   1   7    7.93    2.04
  -1  -1  -7   20.51    1.92
   1   1   8   18.03    2.17
  -1  -1  -8    5.74    1.88
   1   1   9   31.74    3.29
  -1  -1  -9   24.32    2.70
   1   1  10   17.18    2.72
  -1  -1 -10    3.26    2.13
   1   1  11   11.04    1.80
  -1  -1 -11    8.73    2.22
   1   1  12    2.35    1.65
  -1  -1 -12    2.20    2.00
   1   1  13    6.38    3.11
  -1  -1 -13    9.36    2.52
   1   1  14   -1.17    2.02
  -1  -1 -14    2.39    2.01
   1   1  15   -2.99    2.82
  -1  -1 -15    2.18    2.69
  -1  -3  15   -0.84    2.97
  -1  -3  14   -5.87    3.92
   1   3 -13   11.81    2.17
  -1  -3  13    7.64    3.05
   1   3 -11   10.07    1.89
  -1  -3  11    9.00    2.29
   1   3 -10   20.56    2.21
  -1  -3  10   26.01    3.57
   1   3  -9   28.95    3.10
  -1  -3   9   32.91    2.71
   1   3  -8   32.09    2.78
  -1  -3   8   30.03    2.30
   1   3  -7   18.23    1.94
  -1  -3   7   17.37    2.11
   1   3  -6  292.19   19.41
  -1  -3   6  293.46   17.73
   1   3  -5  125.16    5.93
  -1  -3   5  130.13    5.20
   1   3  -4  104.85    4.31
  -1  -3   4  115.60    3.80
   1   3  -3  111.16    3.71
  -1  -3   3  114.38    3.76
   1   3  -2  267.57    9.85
  -1  -3   2  258.65    9.59
   1   3   1  286.11   13.59
  -1  -3  -1  277.51   12.90
   1   3   2  351.78   20.89
  -1  -3  -2  336.09   20.04
   1   3   3  124.52    6.67
  -1  -3  -3  138.47    7.03
   1   3   4  120.92    6.99
  -1  -3  -4  148.30    8.36
   1   3   5  136.40    8.10
  -1  -3  -5  162.32    9.54
   1   3   6  311.85   23.70
  -1  -3  -6  311.09   22.56
   1   3   7   14.71    2.15
  -1  -3  -7   17.10    2.03
   1   3   8   31.81    3.05
  -1  -3  -8   31.15    2.96
   1   3   9   37.21    3.77
  -1  -3  -9   35.81    3.38
   1   3  10   26.95    3.65
  -1  -3 -10   23.98    2.99
   1   3  11   15.29    3.03
  -1  -3 -11    8.48    2.42
   1   3  12    9.30    3.12
  -1  -3 -12    5.84    2.41
   1   3  13    3.28    1.68
   1   3  13   11.64    2.21
  -1  -3 -13    5.51    3.50
   1   3  14    1.78    2.60
  -1  -3 -14    4.95    2.37
   1   3  15    3.96    2.12
  -1  -3 -15    6.72    3.29
   1   5 -15   -2.38    1.43
  -1  -5  15    3.34    4.41
   1   5 -14    3.22    1.51
  -1  -5  14   -2.57    3.19
  -1  -5  13    2.64    2.79
   1   5 -12    2.34    1.45
  -1  -5  12    2.86    2.35
  -1  -5  12   -0.77    1.23
   1   5 -11    1.29    1.85
  -1  -5  11   -1.82    1.93
  -1  -5  11    0.28    2.45
   1   5 -10    1.80    1.73
  -1  -5  10    1.29    1.78
  -1  -5  10    0.65    1.48
   1   5  -9    1.83    1.57
  -1  -5   9    1.76    1.73
   1   5  -8    1.14    1.03
  -1  -5   8    2.64    1.11
   1   5  -7    1.46    0.85
  -1  -5   7    1.49    1.19
   1   5  -6    3.31    1.12
  -1  -5   6    3.77    1.16
   1   5  -5    2.21    0.86
  -1  -5   5    4.23    0.87
   1   5  -4    8.69    0.74
  -1  -5   4    8.00    0.77
   1   5  -3   14.12    0.67
  -1  -5   3   13.30    0.64
  -1  -5   2   13.41    1.27
  -1  -5   2   15.29    0.45
   1   5  -1   16.94    1.11
  -1  -5   1   18.33    1.18
  -1  -5   1   15.23    0.61
   1   5   0   50.77    2.09
   1   5   0   56.09    2.61
  -1  -5   0   57.95    2.28
   1   5   1   17.22    0.99
   1   5   1   18.71    1.50
  -1  -5  -1   20.42    1.43
   1   5   2   23.90    1.84
  -1  -5  -2   23.04    1.96
   1   5   3   12.86    1.65
  -1  -5  -3   16.58    2.06
   1   5   4    8.98    1.54
  -1  -5  -4   12.12    1.95
   1   5   5    2.57    1.36
  -1  -5  -5    3.29    1.45
   1   5   6    2.59    1.47
  -1  -5  -6    0.74    1.77
   1   5   7   -1.19    1.47
  -1  -5  -7    1.35    1.50
   1   5   8   -0.69    1.75
  -1  -5  -8    4.12    1.73
   1   5   9    2.32    1.85
  -1  -5  -9   -0.41    1.83
   1   5  10    0.71    2.21
  -1  -5 -10    3.66    2.02
  -1  -5 -11    2.10    2.18
   1   5  12    6.43    3.00
  -1  -5 -12    4.50    2.51
  -1  -5 -13    0.61    3.25
   1   5  14    2.12    1.60
  -1  -5 -14    1.04    2.52
   1   5  15    2.99    2.46
  -1  -5 -15    1.25    3.44
   1   7 -14    1.46    1.71
  -1  -7  14    4.67    4.49
   1   7 -13   -0.13    1.31
  -1  -7  13    6.25    3.15
   1   7 -12    2.35    1.76
  -1  -7  12   -0.49    2.89
   1   7 -11   -1.08    1.70
  -1  -7  11   -2.92    2.51
   1   7 -10   -0.05    1.50
  -1  -7  10    2.58    2.98
   1   7  -9    1.01    1.02
  -1  -7   9    1.19    2.06
  -1  -7   9    4.55    1.65
   1   7  -8    2.72    1.23
  -1  -7   8    2.55    1.86
  -1  -7   8    2.54    1.44
   1   7  -7    0.94    1.18
  -1  -7   7    0.85    1.61
  -1  -7   7   -0.46    1.12
  -1  -7   6    4.99    1.68
  -1  -7   6    4.92    0.94
   1   7  -5    1.87    0.77
  -1  -7   5    3.04    1.37
  -1  -7   5    2.78    0.64
   1   7  -4    4.79    0.43
  -1  -7   4    3.12    1.28
  -1  -7   4    3.39    0.49
  -1  -7   3    4.80    1.30
  -1  -7   2   14.09    1.27
  -1  -7   2    8.24    0.43
   1   7  -1   16.76    1.54
  -1  -7   1   18.76    1.03
   1   7   0  137.15    5.58
   1   7   0  128.03    6.08
  -1  -7   0  106.72    5.86
  -1  -7   0  130.29    4.74
   1   7   1   18.04    1.31
   1   7   1   13.70    1.43
  -1  -7  -1   17.13    1.27
  -1  -7  -1   16.66    1.64
   1   7   2   13.91    1.59
  -1  -7  -2   19.06    1.96
   1   7   3    4.57    1.34
  -1  -7  -3    7.76    1.76
   1   7   4    1.76    1.29
  -1  -7  -4    2.57    1.44
   1   7   5    3.93    1.42
  -1  -7  -5    4.94    1.64
   1   7   6    4.58    1.58
  -1  -7  -6    0.46    1.77
   1   7   7    0.29    1.42
  -1  -7  -7   -0.39    1.66
   1   7   8    1.74    1.75
  -1  -7  -8    2.24    1.91
   1   7   9    2.35    1.89
  -1  -7  -9    0.83    1.99
   1   7  10    0.54    2.16
  -1  -7 -10    2.44    2.13
   1   7  11    0.74    2.52
  -1  -7 -11    2.19    2.29
   1   7  12    5.81    3.85
  -1  -7 -12    0.49    2.56
   1   7  13    1.92    3.24
   1   7  14    0.75    2.11
  -1  -7 -14   -1.79    2.68
   1   9 -14    0.90    1.31
  -1  -9  14    4.11    3.55
   1   9 -13   -0.02    1.52
   1   9 -13    0.35    1.12
  -1  -9  13    7.11    3.37
   1   9 -12    0.82    1.57
  -1  -9  12    3.65    3.17
   1   9 -11   -0.37    1.46
  -1  -9  11    2.06    2.93
   1   9 -10   -0.24    1.31
  -1  -9  10    2.27    2.67
   1   9  -9    0.26    1.15
  -1  -9   9    6.02    2.62
   1   9  -8    3.09    1.13
  -1  -9   8   11.67    2.57
   1   9  -7    1.97    0.87
  -1  -9   7   13.78    2.33
   1   9  -6   27.59    1.44
  -1  -9   6   40.92    3.48
  -1  -9   5   21.95    2.49
  -1  -9   4    4.29    1.48
  -1  -9   3   22.79    1.93
   1   9  -2   78.31    3.45
  -1  -9   2   58.98    2.88
  -1  -9   2   62.80    1.77
   1   9  -1   29.87    2.59
   1   9  -1   18.18    1.23
   1   9   0  184.17    8.10
   1   9   0  187.11    7.82
  -1  -9   0  169.09    7.78
  -1  -9   0  169.34    6.97
   1   9   1   22.97    1.19
   1   9   1   19.08    2.10
  -1  -9  -1   20.55    1.24
  -1  -9  -1   17.22    1.54
   1   9   2   72.71    2.62
   1   9   2   72.94    3.89
  -1  -9  -2   77.77    4.20
   1   9   3    6.74    0.65
   1   9   3    5.10    1.37
  -1  -9  -3    5.26    1.52
   1   9   4    6.51    1.48
  -1  -9  -4    5.72    1.73
   1   9   5   13.15    1.82
  -1  -9  -5   10.67    2.15
   1   9   6   25.23    2.71
  -1  -9  -6   36.51    3.45
   1   9   7    0.61    1.51
  -1  -9  -7   -0.94    1.86
   1   9   8    4.48    1.99
  -1  -9  -8    9.92    2.39
   1   9   9    0.17    1.91
  -1  -9  -9   -2.13    2.11
   1   9  10    2.03    2.19
  -1  -9 -10    1.44    2.34
   1   9  11   -1.35    2.56
  -1  -9 -11   -1.85    2.56
   1   9  12    2.04    3.04
  -1  -9 -12    5.98    2.91
   1   9  13    0.36    3.16
   1   9  14    1.28    2.19
   1  11 -14    0.83    0.68
  -1 -11  14    1.89    3.80
   1  11 -13    0.59    1.10
  -1 -11  13    2.23    3.63
   1  11 -12    0.01    1.32
  -1 -11  12    6.78    3.40
   1  11 -11   -0.13    1.21
  -1 -11  11    1.88    3.16
   1  11 -10   -0.10    1.10
  -1 -11  10   -0.40    2.90
   1  11  -9    1.57    1.13
  -1 -11   9    6.37    2.85
   1  11  -8    1.00    0.71
  -1 -11   8    7.81    2.51
   1  11  -7   -0.07    0.45
  -1 -11   7    4.24    2.03
  -1 -11   6   -0.69    1.78
  -1 -11   5    2.23    1.58
  -1 -11   4    2.24    1.41
   1  11  -3    1.78    1.06
  -1 -11   3    0.43    1.08
   1  11  -2    0.29    1.11
  -1 -11   2   -0.12    0.90
  -1 -11   2   -0.16    0.45
   1  11  -1    1.99    1.26
   1  11  -1    4.10    0.89
  -1 -11   1    3.08    1.14
  -1 -11   1    3.07    0.89
   1  11   0    7.49    1.11
   1  11   0    6.83    0.96
  -1 -11   0    8.35    1.12
  -1 -11   0    5.66    1.20
   1  11   1    4.91    1.14
   1  11   1    3.25    1.44
  -1 -11  -1    4.62    0.93
  -1 -11  -1    2.63    1.03
   1  11   2    0.09    0.59
   1  11   2   -0.68    1.09
  -1 -11  -2    0.50    1.15
   1  11   3    3.11    0.61
   1  11   3    0.78    1.29
  -1 -11  -3    1.11    1.44
   1  11   4    1.23    0.51
   1  11   4    0.17    1.31
  -1 -11  -4    1.05    1.58
   1  11   5   -1.71    1.40
  -1 -11  -5   -2.06    1.75
   1  11   6   -1.84    1.54
  -1 -11  -6   -1.50    1.93
   1  11   7   -2.04    1.63
  -1 -11  -7   -2.18    2.05
   1  11   8   -4.69    1.84
  -1 -11  -8   -0.39    2.24
   1  11   9    1.83    1.93
  -1 -11  -9   -0.39    2.34
   1  11  10    3.20    2.22
  -1 -11 -10   -0.53    2.52
   1  11  11    2.19    2.55
   1  11  12   -1.06    2.80
  -1 -11 -12   -0.52    2.91
   1  11  13   -7.31    3.37
  -1 -11 -13    0.22    3.26
  -1 -13  14    4.01    3.97
   1  13 -13    2.29    1.19
  -1 -13  13    7.74    4.19
   1  13 -12    0.17    1.15
   1  13 -12    0.49    0.92
  -1 -13  12   -1.26    3.76
   1  13 -11   -1.27    0.99
   1  13 -11    0.88    0.71
  -1 -13  11    1.03    3.52
   1  13 -10    0.41    0.64
   1  13 -10    0.01    0.54
  -1 -13  10    0.90    3.13
  -1 -13   9    2.88    3.11
  -1 -13   8    6.73    2.98
  -1 -13   7    8.27    2.59
  -1 -13   6    1.94    1.96
  -1 -13   5    1.29    1.46
  -1 -13   4    2.22    1.34
   1  13  -3   -0.53    1.15
  -1 -13   3    0.22    1.14
   1  13  -2    1.92    1.31
  -1 -13   2    1.78    1.10
  -1 -13   2    3.00    0.60
   1  13  -1   11.80    1.59
   1  13  -1    9.96    1.39
  -1 -13   1    7.99    1.11
   1  13   0   31.46    1.83
   1  13   0   25.76    1.57
  -1 -13   0   33.21    2.30
  -1 -13   0   23.81    1.50
   1  13   1    2.43    1.56
  -1 -13  -1    5.53    1.16
   1  13   2    3.90    1.06
   1  13   2    2.10    1.23
  -1 -13  -2   -1.76    1.85
   1  13   3    1.32    1.32
  -1 -13  -3    1.60    2.05
   1  13   4    4.18    0.73
   1  13   4    0.99    1.45
  -1 -13  -4    2.30    1.75
   1  13   5   -0.92    1.44
  -1 -13  -5    0.47    1.79
  -1 -13  -6   -1.45    2.08
   1  13   7   -5.47    1.86
  -1 -13  -7   -1.73    2.36
   1  13   8   -4.23    2.02
  -1 -13  -8   -2.94    2.61
  -1 -13  -9    2.28    2.57
   1  13  10   -2.64    2.37
  -1 -13 -10   -2.82    2.86
   1  13  11   -0.16    2.55
  -1 -13 -11    2.56    3.01
   1  13  12   -5.70    3.18
   1  13  13    2.61    3.32
  -1 -13 -13    2.81    3.41
  -1 -15  13    0.74    5.18
  -1 -15  12    2.62    3.82
  -1 -15  11    4.94    3.74
  -1 -15  10    4.21    3.26
  -1 -15   9    2.54    2.94
  -1 -15   8   12.41    3.27
  -1 -15   7   13.58    2.91
  -1 -15   6   30.37    3.39
  -1 -15   5   10.15    2.09
  -1 -15   4   10.86    1.80
   1  15  -3   27.80    2.79
  -1 -15   3   46.07    2.78
   1  15  -2   77.00    4.48
  -1 -15   2   65.64    3.78
   1  15  -1   45.91    2.49
  -1 -15   1   57.29    2.54
  -1 -15   1   48.05    2.51
   1  15   0   68.15    3.31
  -1 -15   0   72.74    3.29
   1  15   1   54.78    4.00
  -1 -15  -1   58.36    4.07
   1  15   2   47.40    4.34
  -1 -15  -2   53.56    3.67
   1  15   3   14.67    1.98
  -1 -15  -3   15.60    2.29
   1  15   4   10.53    1.82
  -1 -15  -4    5.96    2.11
   1  15   5   11.59    2.06
  -1 -15  -5    6.91    2.50
   1  15   6    2.83    1.92
  -1 -15  -6    2.59    2.41
   1  15   7    2.66    2.03
  -1 -15  -7    3.49    2.59
   1  15   8    0.75    2.07
  -1 -15  -8    0.81    2.66
   1  15   9   -1.45    2.11
  -1 -15  -9    3.31    2.71
   1  15  10    3.04    2.40
  -1 -15 -10    0.10    3.06
   1  15  11    2.12    2.70
  -1 -15 -11    3.04    3.31
   1  15  12    2.49    3.01
   1  15  13   -0.49    3.17
  -1 -15 -13   -0.65    3.48
  -1 -17  13   -1.77    4.27
  -1 -17  12    9.20    4.75
  -1 -17  11    2.56    3.85
  -1 -17  10    2.60    3.43
  -1 -17   9    7.39    3.44
  -1 -17   8   10.10    3.18
  -1 -17   7    4.40    2.35
  -1 -17   6    2.32    1.96
  -1 -17   5   10.36    2.06
  -1 -17   4   -0.34    1.49
   1  17  -3   -1.17    1.43
  -1 -17   3    3.56    1.41
  -1 -17   3    1.22    0.49
   1  17  -2    5.27    1.55
  -1 -17   2    2.44    1.36
  -1 -17   2    5.90    0.88
   1  17  -1    8.02    1.63
   1  17  -1    5.94    1.20
  -1 -17   1    6.58    1.52
  -1 -17   1    6.61    1.22
   1  17   0    9.27    1.53
   1  17   0    6.57    1.61
  -1 -17   0   10.43    1.54
  -1 -17   0   10.99    1.63
   1  17   1    8.99    1.59
   1  17   1    4.40    1.37
  -1 -17  -1   10.10    1.43
   1  17   2    7.57    1.40
   1  17   2    3.60    1.54
  -1 -17  -2    9.83    1.73
   1  17   3   -4.46    2.10
  -1 -17  -3   -2.29    1.76
   1  17   4   -4.98    2.40
  -1 -17  -4   -5.80    2.74
   1  17   5   -2.15    1.79
  -1 -17  -5   -1.00    2.11
   1  17   6   -2.40    1.99
  -1 -17  -6   -4.07    2.44
   1  17   7   -3.73    2.10
  -1 -17  -7   -3.48    2.70
   1  17   8    1.42    0.57
   1  17   8   -1.89    2.18
   1  17   9   -0.67    2.23
  -1 -17  -9   -0.21    2.88
   1  17  10    1.66    2.52
  -1 -17 -10    3.79    3.21
   1  17  12    1.16    2.95
  -1 -17 -12   -4.41    3.56
  -1 -19  12   14.34    5.42
  -1 -19  11   -0.28    3.75
  -1 -19  10    2.62    3.61
  -1 -19   9    0.72    3.03
  -1 -19   8    6.11    2.99
  -1 -19   7    0.01    2.23
  -1 -19   6    3.83    2.07
  -1 -19   5    5.66    2.05
  -1 -19   4    2.38    1.66
   1  19  -3   -1.18    1.46
  -1 -19   3   -1.43    1.44
  -1 -19   3   -0.38    0.49
   1  19  -2   -2.08    1.43
  -1 -19   2   -1.05    1.27
  -1 -19   2   -0.27    0.90
   1  19  -1   -0.67    1.38
   1  19  -1    0.39    1.02
  -1 -19   1   -0.81    1.37
  -1 -19   1    0.62    1.15
   1  19   0   -2.64    1.78
   1  19   0   -0.59    1.38
  -1 -19   0   -0.85    1.04
  -1 -19   0   -3.67    1.41
   1  19   1   -1.40    1.07
   1  19   1   -0.07    1.24
  -1 -19  -1   -0.89    1.30
  -1 -19  -1   -3.52    1.70
   1  19   2    1.50    0.96
   1  19   2    0.35    1.40
  -1 -19  -2   -0.04    1.50
   1  19   3   -0.21    0.88
   1  19   3   -3.20    1.59
   1  19   4    0.27    1.16
   1  19   4   -4.19    1.75
   1  19   5    0.25    1.03
   1  19   5   -1.94    1.88
   1  19   6    1.02    0.73
   1  19   6   -2.11    2.02
   1  19   7   -4.30    2.37
  -1 -19  -7   -4.01    2.88
   1  19   8    1.74    1.08
   1  19   8   -2.16    2.32
  -1 -19  -8    1.67    2.91
   1  19   9    1.15    1.10
   1  19   9   -1.87    2.39
  -1 -19  -9    4.78    3.06
   1  19  10    0.98    1.24
   1  19  10    1.74    2.54
   1  19  11    0.40    1.41
   1  19  11   -0.51    2.77
  -1 -19 -11    0.12    3.44
   1  19  12    0.47    1.57
  -1 -21  11    4.83    4.48
  -1 -21  10   -1.46    3.73
  -1 -21   9    6.70    3.70
  -1 -21   8    1.44    2.86
  -1 -21   7    1.40    2.50
  -1 -21   6    1.42    2.24
  -1 -21   5    0.78    2.00
  -1 -21   4    1.53    1.80
   1  21  -3    2.23    1.64
  -1 -21   3    1.67    1.70
  -1 -21   3    2.77    0.70
   1  21  -2    7.62    1.78
  -1 -21   2    8.22    2.17
  -1 -21   2    7.40    1.17
   1  21  -1   14.92    2.77
   1  21  -1   11.96    1.48
  -1 -21   1   12.15    1.93
  -1 -21   1   13.50    1.77
   1  21   0   22.05    2.14
   1  21   0   15.62    1.64
  -1 -21   0   15.93    1.83
  -1 -21   0   20.13    1.83
   1  21   1    5.29    2.14
  -1 -21  -1   10.86    1.78
  -1 -21  -1    7.47    1.68
   1  21   2    7.86    1.68
   1  21   2    4.28    1.80
  -1 -21  -2    5.66    1.91
   1  21   3   -1.21    1.82
  -1 -21  -3   -0.37    2.54
   1  21   4    3.20    1.05
   1  21   4    2.02    2.10
  -1 -21  -4    2.43    2.19
   1  21   5    4.07    1.44
   1  21   5    2.86    2.33
  -1 -21  -5    1.65    2.47
   1  21   6    7.00    1.12
   1  21   6    3.82    2.68
  -1 -21  -6    2.92    2.91
   1  21   7    5.66    1.46
   1  21   7    4.87    2.72
  -1 -21  -7    5.11    3.17
   1  21   8    2.18    1.82
   1  21   8    8.40    3.55
  -1 -21  -8   -0.37    3.15
   1  21   9    2.14    1.86
   1  21   9    0.56    2.67
  -1 -21  -9    2.83    3.29
   1  21  10    3.04    2.04
  -1 -21 -10    5.11    3.66
   1  21  11    3.76    1.87
   1  21  11   -0.01    3.03
  -1 -23   9    4.26    3.74
  -1 -23   8    9.42    3.60
  -1 -23   7   11.09    3.32
  -1 -23   5    4.02    2.25
  -1 -23   4    6.86    2.24
   1  23  -3    4.67    1.84
  -1 -23   3    6.03    2.49
  -1 -23   2    0.68    2.12
  -1 -23   2    3.33    1.13
   1  23  -1    4.85    1.81
  -1 -23   1    3.19    1.78
  -1 -23   1    3.88    1.56
   1  23   0    6.29    1.75
   1  23   0    1.30    1.70
  -1 -23   0    8.56    1.65
  -1 -23   0    7.11    2.01
   1  23   1    3.47    2.03
   1  23   1   -1.59    1.41
  -1 -23  -1    5.13    1.57
   1  23   2    3.46    1.25
   1  23   2   -1.21    2.35
   1  23   3    2.38    1.58
   1  23   3   -2.33    2.64
  -1 -23  -3    1.15    1.98
   1  23   4    2.17    1.16
  -1 -23  -4    1.47    2.27
  -1 -23  -5   -2.86    2.60
   1  23   6    2.82    2.61
  -1 -23  -6   -0.66    2.77
   1  23   7    0.36    3.58
  -1 -23  -7    0.58    2.93
   1  23   8   -0.91    1.24
   1  23   8    0.28    2.81
  -1 -23  -8   -2.35    3.18
   1  23   9    2.64    1.79
   1  23  10    3.32    1.82
   1  23  10   -0.63    3.19
   1  23  11    1.55    1.79
  -1 -23 -11   -1.53    3.76
  -1 -25   8   -0.89    3.04
  -1 -25   7    1.89    2.73
  -1 -25   6   11.38    4.12
  -1 -25   5    6.60    2.58
  -1 -25   4    5.38    3.00
   1  25  -3   -1.67    1.67
  -1 -25   3    3.07    2.57
  -1 -25   3    1.86    0.95
   1  25  -2   -3.51    2.41
  -1 -25   2    3.99    2.10
  -1 -25   2    2.59    1.27
   1  25  -1    3.64    1.87
  -1 -25   1    3.41    1.99
  -1 -25   1    5.41    1.74
   1  25   0   -1.51    1.71
   1  25   0    1.57    1.49
  -1 -25   0   -0.02    1.74
   1  25   1    3.94    1.76
   1  25   1    6.76    2.18
   1  25   2    6.02    1.66
   1  25   2    0.39    1.89
  -1 -25  -2    1.68    2.00
   1  25   3    3.08    1.37
   1  25   3    1.66    2.18
   1  25   4   -1.90    2.29
  -1 -25  -4    2.90    2.59
   1  25   5   -4.32    2.75
  -1 -25  -5   -2.02    3.08
   1  25   6   -3.05    3.12
  -1 -25  -6   -6.97    3.43
   1  25   7    2.81    1.44
   1  25   7    0.08    3.07
  -1 -25  -7   -2.30    3.33
   1  25   8   -1.83    2.01
  -1 -25  -8    0.58    3.27
   1  25   9    2.23    2.07
   1  25   9    2.57    3.37
  -1 -25  -9    3.10    3.28
   1  25  10    4.19    2.16
  -1 -27   8    7.04    3.43
  -1 -27   7    4.86    3.03
  -1 -27   6    2.21    3.46
  -1 -27   5    3.77    3.35
  -1 -27   4    4.22    3.13
   1  27  -3   -1.01    1.78
  -1 -27   3    4.33    2.45
  -1 -27   3    1.45    0.84
   1  27  -2    2.66    1.94
  -1 -27   2    3.05    2.40
  -1 -27   2    3.24    1.43
   1  27  -1    5.24    1.94
  -1 -27   1    5.83    2.28
  -1 -27   1    3.53    1.83
  -1 -27   1    2.04    1.85
   1  27   0    6.28    2.21
  -1 -27   0    6.87    2.42
   1  27   1    9.74    2.03
  -1 -27  -1    2.15    2.07
   1  27   2    6.01    1.92
   1  27   3    4.87    1.78
   1  27   3    0.19    2.32
  -1 -27  -3    2.10    2.66
   1  27   4    3.77    1.59
   1  27   4    4.10    2.70
  -1 -27  -4    1.27    2.95
   1  27   5    4.35    2.17
   1  27   5    1.72    3.02
  -1 -27  -5    2.02    3.21
  -1 -27  -6   -2.03    3.39
   1  27   7   -3.47    3.45
  -1 -27  -7    7.42    3.54
   1  27   8    1.71    3.58
  -1 -29   7   -2.25    3.91
  -1 -29   6   -3.62    3.80
  -1 -29   5    3.33    3.54
  -1 -29   4    5.06    3.09
   1  29  -3    2.42    1.90
  -1 -29   3    2.43    2.70
  -1 -29   3    2.71    0.86
   1  29  -2    4.90    2.09
  -1 -29   2    9.20    2.72
  -1 -29   2    3.94    1.48
   1  29  -1    3.41    2.71
  -1 -29   1    7.06    2.64
  -1 -29   1    2.76    1.93
   1  29   0    5.19    2.06
  -1 -29   0    4.08    2.41
   1  29   1    3.78    2.73
   1  29   1    2.07    0.92
   1  29   2    7.60    2.13
   1  29   2    6.87    2.05
  -1 -29  -2    1.20    2.60
   1  29   3    3.66    1.99
   1  29   3    3.58    3.20
  -1 -29  -3    1.16    2.77
   1  29   4    1.53    2.68
   1  29   4    5.72    3.77
   1  29   5    0.24    3.34
  -1 -29  -5    9.08    3.56
   1  29   6    0.46    3.39
  -1 -31   5    3.40    3.30
  -1 -31   4   -4.31    3.21
  -1 -31   3    2.64    2.86
   1  31  -2   -2.04    1.75
  -1 -31   2   -1.49    2.60
  -1 -31   2    1.22    1.22
   1  31  -1   -2.24    1.90
  -1 -31   1    0.55    1.90
   1  31   0    0.34    1.88
  -1 -31   0    2.38    2.33
   1  31   1    1.36    1.95
  -1 -31  -1   -0.91    2.69
   1  31   2    3.98    2.97
   1  31   3    3.58    2.14
   1  31   3    2.95    2.30
  -1 -31  -3    0.43    2.73
   1  31   4    1.74    2.11
   1  31   4    0.82    2.77
  -1 -31  -4    1.88    3.02
   1  31   5    2.38    3.21
  -1 -31  -5    1.56    3.39
  -1 -33   2    3.36    3.25
  -1 -33   1    1.24    1.97
  -1 -33   0   -0.79    1.80
  -1 -33  -1    0.13    2.08
  -1 -33  -1    0.68    2.10
  -1 -33  -2   -0.31    2.35
   2 -32  -4    5.12    3.13
   2 -32  -3    3.25    2.75
  -2  32   3    1.95    2.61
   2 -32  -2    2.40    2.47
  -2  32   2    3.67    1.23
  -2  32   2    1.28    2.13
   2 -32  -1    4.41    3.04
  -2  32   1    4.65    1.66
  -2  32   1    5.29    1.69
   2 -32   0    1.28    2.28
  -2  32   0    4.28    1.76
  -2  32   0    1.09    1.50
   2 -32   1    4.09    1.60
   2 -32   1    1.93    2.15
  -2  32  -1    1.84    1.96
  -2  32  -1    1.03    1.12
   2 -32   2    0.98    1.49
  -2  32  -2    3.58    2.17
  -2  32  -2    1.17    1.03
  -2  30   6    0.09    3.25
   2 -30  -5    1.55    2.81
  -2  30   5   -1.83    2.99
   2 -30  -4   -0.89    2.68
  -2  30   4    2.77    2.73
   2 -30  -3   -0.68    2.49
  -2  30   3    3.37    2.44
   2 -30  -2    4.03    2.94
  -2  30   2    0.99    1.48
  -2  30   2   -4.42    2.04
   2 -30  -1    2.92    2.06
  -2  30   1    2.40    1.36
  -2  30   1    4.49    2.29
   2 -30   0    2.48    2.20
  -2  30   0    2.11    1.74
  -2  30   0    3.79    1.69
   2 -30   1    0.63    1.95
  -2  30  -1    2.80    1.85
  -2  30  -1    0.41    0.86
   2 -30   2    1.52    1.48
  -2  30  -2    0.20    2.04
  -2  30  -2    0.67    0.93
   2 -30   3    1.33    2.76
   2 -30   3    0.13    0.87
  -2  30  -3   -3.36    2.18
   2 -30   4    1.01    2.70
  -2  30  -4   -2.50    3.08
   2 -30   5   -2.91    3.94
  -2  30  -5    3.71    2.33
   2 -30   6   -5.04    3.24
  -2  28   8    0.45    0.67
  -2  28   7    1.41    0.51
   2 -28  -6   -2.82    3.02
  -2  28   6    1.67    3.11
   2 -28  -5    3.24    2.92
  -2  28   5    1.86    2.99
   2 -28  -4    0.95    3.59
  -2  28   4    2.50    2.71
   2 -28  -3    0.25    2.34
  -2  28   3   -1.39    3.18
   2 -28  -2    4.22    2.42
  -2  28   2    8.60    3.13
   2 -28  -1    0.71    2.74
  -2  28   1    1.73    1.81
  -2  28   1    5.65    2.45
   2 -28   0    3.02    2.40
  -2  28   0    2.10    1.57
  -2  28   0    5.63    1.48
   2 -28   1    4.50    2.03
  -2  28  -1    8.85    2.68
  -2  28  -1    3.00    1.40
   2 -28   2    4.20    1.55
  -2  28  -2    1.83    2.18
  -2  28  -2    3.48    0.98
   2 -28   3    4.83    2.39
   2 -28   3    1.73    1.02
  -2  28  -3   -2.19    2.32
  -2  28  -3    1.92    1.04
   2 -28   4   -4.21    3.41
  -2  28  -4   -1.11    2.35
   2 -28   5   -1.92    2.57
  -2  28  -5    0.99    2.43
   2 -28   6    1.64    2.88
  -2  28  -6    3.30    2.40
   2 -28   7    0.11    2.97
  -2  26   9    0.29    0.46
  -2  26   9    1.07    3.20
  -2  26   8    0.37    0.48
   2 -26  -7    3.06    3.29
  -2  26   7    3.59    3.16
   2 -26  -6   -1.61    2.92
  -2  26   6    1.50    0.60
   2 -26  -5    1.75    2.83
  -2  26   5    5.08    2.83
  -2  26   4    0.46    0.74
  -2  26   4    4.03    2.42
   2 -26  -3    3.02    2.26
  -2  26   3    1.51    0.92
  -2  26   3    3.57    2.28
  -2  26   3    1.96    2.33
   2 -26  -2    0.34    2.90
  -2  26   2    3.41    1.13
  -2  26   2    5.02    2.13
   2 -26  -1    1.35    2.58
  -2  26   1    2.20    1.28
  -2  26   1    3.97    1.81
  -2  26   1    0.48    1.85
   2 -26   0   -0.70    2.27
  -2  26   0    4.40    1.54
  -2  26   0    3.94    2.07
  -2  26   0    4.51    1.60
   2 -26   1    2.22    1.74
  -2  26  -1    5.74    1.89
  -2  26  -1    2.82    1.52
   2 -26   2    2.77    2.01
   2 -26   2    0.00    1.02
  -2  26  -2    7.11    2.00
  -2  26  -2    0.97    0.97
   2 -26   3    4.46    2.05
   2 -26   3    2.01    1.07
  -2  26  -3    3.77    2.20
  -2  26  -3    1.24    0.90
   2 -26   4    5.45    2.23
  -2  26  -4    0.21    2.32
   2 -26   5    5.13    2.53
  -2  26  -5    3.36    2.51
   2 -26   6   -1.19    2.56
  -2  26  -6    1.69    2.23
   2 -26   7    1.74    2.89
   2 -26   8    1.52    3.57
   2 -26   9    7.79    4.66
   2 -24  -9    3.32    3.72
  -2  24   9    8.09    3.30
   2 -24  -8    1.05    3.06
  -2  24   8   -0.04    0.19
  -2  24   8   -0.82    2.81
   2 -24  -7    4.42    3.02
  -2  24   7    1.53    2.82
   2 -24  -6    2.58    2.75
  -2  24   6    1.73    2.60
  -2  24   6    0.07    2.65
   2 -24  -5   -3.91    2.54
  -2  24   5    0.12    2.55
   2 -24  -4   -3.38    2.31
  -2  24   4    1.51    0.67
  -2  24   4    1.77    3.12
   2 -24  -3    4.28    2.06
  -2  24   3    0.35    0.84
  -2  24   3   -1.32    2.87
   2 -24  -2    1.21    1.87
   2 -24  -2    2.72    1.86
  -2  24   2    0.33    1.02
  -2  24   2   -2.67    1.94
   2 -24  -1    0.99    1.68
  -2  24   1   -0.30    1.63
  -2  24   1   -1.29    1.71
   2 -24   0    1.06    1.58
  -2  24   0    4.79    1.44
  -2  24   0    0.64    2.05
   2 -24   1    3.62    1.56
  -2  24  -1    0.78    1.55
  -2  24  -1    2.61    1.59
   2 -24   2    0.27    2.17
   2 -24   2   -1.16    1.39
  -2  24  -2    0.42    1.88
  -2  24  -2    1.04    1.06
  -2  24  -2    2.91    1.12
   2 -24   3    1.15    1.70
   2 -24   3    1.67    1.02
  -2  24  -3    0.05    2.03
  -2  24  -3    0.11    0.85
   2 -24   4   -1.36    1.87
  -2  24  -4    2.82    2.24
   2 -24   5    4.56    2.07
  -2  24  -5   -4.92    2.18
   2 -24   6    2.54    2.66
  -2  24  -6    0.88    2.17
   2 -24   7   -0.40    2.89
   2 -24   8   -5.98    3.79
   2 -24   9    7.98    4.59
   2 -24  10   -0.63    4.53
  -2  22  10    0.00    0.04
  -2  22   9    0.09    0.10
  -2  22   9    1.63    2.63
   2 -22  -8   -2.56    2.93
  -2  22   8    0.05    0.14
  -2  22   8    1.67    2.49
   2 -22  -7   -0.28    2.72
  -2  22   7   -0.25    0.23
  -2  22   7    1.53    2.41
  -2  22   7    0.17    2.43
   2 -22  -6    0.05    2.48
  -2  22   6    0.51    0.36
  -2  22   6   -1.80    2.35
  -2  22   5   -2.03    2.33
   2 -22  -4    2.06    2.73
  -2  22   4    0.03    0.76
  -2  22   4    0.13    2.06
   2 -22  -3    0.81    1.89
  -2  22   3    0.43    0.78
  -2  22   3    3.16    2.16
   2 -22  -2   -6.21    2.42
  -2  22   2    0.69    2.09
   2 -22  -1    1.93    2.07
  -2  22   1    1.22    1.13
   2 -22   0   -3.75    1.85
  -2  22   0    0.61    1.27
   2 -22   1    3.64    2.08
   2 -22   1    0.16    1.47
  -2  22  -1    4.81    1.80
   2 -22   2   -0.09    1.97
   2 -22   2    0.31    1.27
  -2  22  -2    0.12    1.76
  -2  22  -2    0.90    1.30
   2 -22   3   -0.06    2.08
   2 -22   3   -0.72    0.97
  -2  22  -3    1.74    1.90
  -2  22  -3    1.17    0.75
   2 -22   4    0.18    1.64
   2 -22   4    0.53    0.49
  -2  22  -4   -2.43    2.11
  -2  22  -4    0.24    0.57
   2 -22   5   -1.09    2.23
  -2  22  -5   -5.74    2.25
   2 -22   6    2.65    2.48
  -2  22  -6    0.58    2.01
   2 -22   7    3.85    3.02
   2 -22   8    2.07    2.57
   2 -22   9    5.28    3.25
   2 -22  10    3.65    3.63
   2 -22  11   -0.01    3.82
   2 -20 -10    2.75    3.41
  -2  20  10    3.01    2.72
   2 -20  -9   -3.01    3.07
  -2  20   9   -0.79    2.47
   2 -20  -8    6.30    2.89
  -2  20   8    2.44    2.43
  -2  20   8    0.13    2.47
   2 -20  -7   -0.19    2.58
  -2  20   7    0.54    0.22
  -2  20   7    2.86    2.22
   2 -20  -6    0.91    2.36
  -2  20   6    1.04    0.35
  -2  20   6    2.33    2.12
   2 -20  -5   -3.21    2.10
  -2  20   5    3.04    2.24
   2 -20  -4    3.80    1.86
  -2  20   4    0.32    0.74
  -2  20   4    0.05    2.13
   2 -20  -3    0.85    1.70
  -2  20   3    0.01    0.95
  -2  20   3   -2.52    2.65
   2 -20  -2    1.66    1.61
  -2  20   2    2.75    0.94
  -2  20   2    1.42    1.91
   2 -20  -1   -1.31    1.98
  -2  20   1    2.42    1.16
  -2  20   1    2.80    1.47
   2 -20   0    1.85    1.76
  -2  20   0    4.75    1.28
  -2  20   0    0.76    1.34
   2 -20   1    2.20    1.84
   2 -20   1   -0.96    0.96
  -2  20  -1    2.65    1.36
  -2  20  -1    1.75    1.42
   2 -20   2    1.27    1.82
   2 -20   2    1.26    1.20
  -2  20  -2    1.62    1.50
  -2  20  -2    2.40    1.14
   2 -20   3   -1.98    2.69
   2 -20   3    0.67    0.92
  -2  20  -3    2.52    1.82
  -2  20  -3    2.12    0.93
   2 -20   4    1.93    2.46
   2 -20   4    1.27    0.54
  -2  20  -4    2.62    2.03
  -2  20  -4    1.55    0.50
   2 -20   5    2.89    1.92
  -2  20  -5    1.75    2.08
   2 -20   6    0.23    2.22
  -2  20  -6   -0.21    1.98
   2 -20   7    2.44    2.17
   2 -20   8    6.23    3.66
   2 -20   9   -2.30    2.95
   2 -20  10    2.14    3.49
   2 -20  11    8.40    4.41
  -2  18  12    0.99    2.82
   2 -18 -11    1.79    3.37
  -2  18  11    0.18    2.65
   2 -18 -10    1.87    3.15
   2 -18  -9    4.11    3.04
  -2  18   9    3.65    2.41
   2 -18  -8    4.52    2.68
  -2  18   8   -1.64    2.18
   2 -18  -7    2.50    2.56
  -2  18   7    1.89    2.15
   2 -18  -6    4.44    2.52
  -2  18   6    6.68    2.52
   2 -18  -5    5.61    2.20
  -2  18   5    4.51    2.31
   2 -18  -4    7.83    2.04
  -2  18   4    6.64    0.76
  -2  18   4    4.70    2.28
   2 -18  -3   11.64    3.12
  -2  18   3   17.77    1.39
  -2  18   3   17.70    2.31
   2 -18  -2   32.34    2.74
  -2  18   2   29.29    1.69
  -2  18   2   29.01    3.59
   2 -18  -1   50.11    3.26
   2 -18  -1   53.74    3.32
  -2  18   1   42.71    2.58
  -2  18   1   49.87    4.18
   2 -18   0   59.57    4.01
  -2  18   0   49.08    3.19
  -2  18   0   52.92    3.15
   2 -18   1   48.93    3.74
   2 -18   1   41.08    2.25
  -2  18  -1   40.15    2.95
   2 -18   2   36.22    3.23
   2 -18   2   29.90    2.07
  -2  18  -2   28.72    2.62
  -2  18  -2   26.23    2.11
   2 -18   3   13.70    2.43
   2 -18   3   10.90    1.17
  -2  18  -3    4.96    2.21
   2 -18   4   13.23    3.79
   2 -18   4    8.28    0.71
  -2  18  -4    6.33    2.29
   2 -18   5    8.63    2.53
  -2  18  -5   11.17    2.38
   2 -18   6    6.21    1.88
  -2  18  -6    6.29    2.22
   2 -18   7    5.35    2.22
   2 -18   8    7.04    2.69
   2 -18  10    2.60    3.44
   2 -18  11    1.11    3.74
   2 -18  12    5.60    4.43
   2 -16 -12    2.72    3.33
  -2  16  12   -1.42    2.68
  -2  16  11   -2.21    2.63
   2 -16 -10   -2.75    2.87
  -2  16  10    0.55    2.29
   2 -16  -9    0.53    2.64
  -2  16   9   -0.52    2.08
   2 -16  -8   -0.32    2.53
  -2  16   8   -2.11    2.02
   2 -16  -7   -0.83    2.22
  -2  16   7    0.85    2.12
   2 -16  -6   -3.77    2.20
  -2  16   6   -4.27    2.19
   2 -16  -5   -0.49    2.50
  -2  16   5   -1.74    1.95
   2 -16  -4    1.46    1.81
  -2  16   4    6.27    0.72
  -2  16   4    6.00    1.67
   2 -16  -3    6.50    1.82
  -2  16   3   10.19    0.98
  -2  16   3    8.22    1.78
   2 -16  -2   14.19    1.84
  -2  16   2   16.92    1.52
  -2  16   2    9.09    1.90
   2 -16  -1   25.61    2.82
  -2  16   1   27.86    1.80
  -2  16   1   26.38    2.92
   2 -16   0   35.63    2.21
  -2  16   0   34.62    2.41
  -2  16   0   35.99    2.97
   2 -16   1   15.05    3.19
   2 -16   1   19.55    1.66
  -2  16  -1   19.78    1.95
  -2  16  -1   21.46    1.97
   2 -16   2   11.26    2.28
   2 -16   2   15.54    1.42
  -2  16  -2   14.02    1.89
   2 -16   3    9.13    2.24
  -2  16  -3    3.98    1.86
  -2  16  -3    4.80    0.98
   2 -16   4    2.40    2.38
  -2  16  -4    2.89    1.90
  -2  16  -4    3.59    0.66
   2 -16   5    3.35    2.05
  -2  16  -5    2.13    1.84
   2 -16   6    0.11    2.12
  -2  16  -6   -0.49    1.60
   2 -16   7    1.36    2.40
   2 -16   8    5.14    2.58
   2 -16   9   -0.15    2.72
   2 -16  12    8.12    5.91
   2 -14 -11    1.48    3.03
  -2  14  11   -4.36    2.49
   2 -14 -10   -1.01    2.75
  -2  14  10   -1.19    2.16
   2 -14  -9   -2.75    2.59
  -2  14   9   -1.16    2.04
   2 -14  -8   -3.25    2.36
  -2  14   8    0.84    1.91
   2 -14  -7   -1.04    2.30
  -2  14   7   -6.40    2.18
   2 -14  -6   -0.01    1.95
  -2  14   6    0.90    1.85
   2 -14  -5   -1.83    1.75
  -2  14   5   -0.64    1.48
   2 -14  -4    3.96    2.27
  -2  14   4    5.98    1.54
   2 -14  -3   25.96    2.42
  -2  14   3   26.48    1.40
  -2  14   3   23.39    2.32
   2 -14  -2   42.66    3.00
  -2  14   2   43.30    2.24
  -2  14   2   47.98    3.05
   2 -14  -1   38.75    3.28
  -2  14   1   43.66    2.86
  -2  14   1   40.53    2.59
   2 -14   0   43.71    2.38
  -2  14   0   40.25    2.62
  -2  14   0   47.33    3.17
   2 -14   1   43.49    3.58
   2 -14   1   48.53    2.54
  -2  14  -1   49.18    3.23
  -2  14  -1   57.24    2.95
   2 -14   2   50.73    3.88
   2 -14   2   49.13    2.30
  -2  14  -2   46.45    3.35
  -2  14  -2   50.89    2.76
   2 -14   3   18.36    2.83
   2 -14   3   16.51    1.23
  -2  14  -3   15.84    2.35
  -2  14  -3   18.62    1.33
   2 -14   4    7.15    1.93
  -2  14  -4    6.62    1.90
   2 -14   5    0.84    1.92
  -2  14  -5    3.58    1.71
   2 -14   6    3.65    2.29
  -2  14  -6    2.60    1.60
  -2  14  -6    5.32    0.57
   2 -14   8    0.35    2.32
  -2  14  -8   -0.27    0.58
   2 -14   9    2.32    2.42
  -2  14  -9    0.49    0.68
  -2  14  -9    0.19    0.97
   2 -14  10   -0.84    2.57
  -2  14 -10    0.34    0.71
  -2  14 -10   -0.30    0.95
   2 -14  11    1.55    2.79
  -2  14 -11    0.71    0.69
  -2  14 -11   -0.69    0.92
   2 -14  12   -0.61    2.97
  -2  14 -12    0.42    0.68
  -2  14 -12    0.30    1.06
   2 -14  13    4.04    3.38
  -2  12  14   -1.98    3.40
   2 -12 -13    2.56    3.26
   2 -12 -11    1.03    2.85
  -2  12  11    1.62    2.45
  -2  12  10   -1.67    2.14
   2 -12  -9    0.68    2.44
  -2  12   9    3.49    2.68
   2 -12  -8    4.72    2.52
  -2  12   8    8.11    2.11
   2 -12  -7    9.12    2.60
  -2  12   7   15.81    2.52
   2 -12  -6   33.81    3.32
  -2  12   6   28.47    3.34
   2 -12  -5   38.39    3.03
  -2  12   5   24.67    2.55
   2 -12  -4   20.28    2.18
  -2  12   4   17.96    2.00
   2 -12  -3   81.59    4.67
  -2  12   3   78.13    4.60
   2 -12  -2  137.49    8.21
  -2  12   2  130.29    5.74
  -2  12   2  127.15    6.92
   2 -12  -1  130.64    7.77
  -2  12   1  157.16    7.17
  -2  12   1  128.09    6.61
  -2  12   1  140.69    6.74
   2 -12   0  168.83    8.99
  -2  12   0  162.61    8.30
  -2  12   0  170.77    7.65
   2 -12   1  176.01    9.46
   2 -12   1  138.11    6.40
  -2  12  -1  163.20   10.56
  -2  12  -1  162.15    7.41
   2 -12   2  169.17   10.93
   2 -12   2  161.04    7.14
  -2  12  -2  139.91    8.65
  -2  12  -2  172.49    7.91
   2 -12   3   45.03    3.76
  -2  12  -3   57.65    4.01
  -2  12  -3   57.21    2.42
  -2  12  -4   54.64    4.06
  -2  12  -4   55.24    2.09
  -2  12  -5   54.38    4.00
  -2  12  -5   59.85    2.34
   2 -12   6   32.26    3.54
  -2  12  -6   22.86    2.38
  -2  12  -6   25.03    1.16
  -2  12  -6   31.53    1.28
  -2  12  -7    7.56    1.06
  -2  12  -7   15.37    1.13
  -2  12  -8    0.50    0.89
  -2  12  -8    0.92    0.89
   2 -12   9    1.63    2.19
  -2  12  -9    0.24    0.74
  -2  12  -9   -0.66    0.83
   2 -12  10    1.80    3.18
  -2  12 -10    2.18    0.95
  -2  12 -10    0.11    1.04
   2 -12  11    2.76    3.33
  -2  12 -11    1.88    1.17
  -2  12 -11   -0.81    1.20
  -2  12 -12    0.57    0.92
  -2  12 -12    1.97    1.39
  -2  12 -13    0.13    0.82
  -2  12 -13    0.17    1.62
   2 -10 -13    4.58    3.14
   2 -10 -12   -0.45    3.63
   2 -10 -11   -2.13    2.65
   2 -10 -10   -0.24    2.34
  -2  10  10    4.00    2.11
   2 -10  -9   -1.03    2.02
  -2  10   9    0.04    1.80
   2 -10  -8   -5.25    1.99
  -2  10   8   -1.17    1.97
   2 -10  -7   -3.33    1.77
  -2  10   7   -3.42    1.79
   2 -10  -6    1.14    1.53
  -2  10   6    1.20    1.35
   2 -10  -5   -0.75    1.33
  -2  10   5    0.55    1.20
   2 -10  -4    0.61    1.23
  -2  10   4    0.09    1.17
   2 -10  -3    1.99    1.15
  -2  10   3    0.86    1.13
   2 -10  -2    2.14    1.39
  -2  10   2    1.09    1.06
  -2  10   1   10.64    1.28
  -2  10   1    9.93    1.24
   2 -10   0   17.78    1.63
  -2  10   0   17.51    1.86
  -2  10   0   16.49    1.29
   2 -10   1    3.08    1.25
   2 -10   1    1.38    0.90
  -2  10  -1    1.81    1.17
  -2  10  -1    1.10    0.97
   2 -10   2    0.55    1.61
   2 -10   2    5.12    0.93
  -2  10  -2    2.44    1.26
  -2  10  -2    4.18    0.83
   2 -10   3    1.40    1.74
   2 -10   3    1.13    0.76
  -2  10  -3   -1.75    1.32
   2 -10   4    1.26    1.53
  -2  10  -4    1.31    1.41
  -2  10  -4    3.34    0.63
   2 -10   5   -0.31    1.55
  -2  10  -5    0.45    1.25
  -2  10  -5    1.04    0.64
   2 -10   6    0.50    1.58
  -2  10  -6    0.01    0.62
  -2  10  -6    0.03    0.71
   2 -10   7   -0.59    1.65
  -2  10  -7   -0.80    0.69
  -2  10  -7   -0.02    0.82
   2 -10   8    0.71    1.82
  -2  10  -8    0.32    0.78
  -2  10  -8    1.35    0.87
   2 -10   9    0.54    1.89
  -2  10  -9   -0.96    0.90
  -2  10  -9    0.19    1.26
   2 -10  10   -0.22    2.05
  -2  10 -10    0.06    0.99
  -2  10 -10    1.36    1.17
   2 -10  11   -3.13    2.24
  -2  10 -11    2.72    1.16
  -2  10 -11    0.42    1.46
   2 -10  12    1.81    2.38
  -2  10 -12    0.50    1.17
  -2  10 -12    1.23    1.70
   2 -10  13    2.26    2.62
  -2  10 -13    1.81    1.14
  -2  10 -13    1.79    2.03
   2 -10  14    1.30    3.72
  -2  10 -14    2.08    1.12
  -2  10 -14    2.22    2.30
   2  -8 -13    3.94    2.87
   2  -8 -12    4.40    3.34
  -2   8  12   -1.38    2.49
   2  -8 -11    3.53    2.47
   2  -8 -10   -0.24    2.22
  -2   8  10    4.29    2.02
   2  -8  -9   -0.80    1.90
  -2   8   9   -1.82    1.77
   2  -8  -8   -0.98    1.74
  -2   8   8   -1.47    1.82
   2  -8  -7   -0.34    1.53
  -2   8   7   -2.20    1.61
   2  -8  -6    0.00    1.48
   2  -8  -5   -0.05    1.25
  -2   8   5    1.83    1.19
   2  -8  -4   -0.14    1.16
  -2   8   4    1.88    1.11
   2  -8  -3    0.13    1.04
  -2   8   3    1.31    1.05
   2  -8  -2    8.50    1.18
  -2   8   2    7.75    1.26
   2  -8  -1    5.86    1.08
   2  -8  -1    8.90    1.10
  -2   8   1   10.35    1.20
   2  -8   0   50.58    2.55
  -2   8   0   40.77    2.62
  -2   8   0   49.55    2.74
   2  -8   1    3.81    1.25
   2  -8   1    2.95    0.97
  -2   8  -1    4.81    1.19
  -2   8  -1    2.34    0.67
   2  -8   2    9.75    1.87
   2  -8   2   15.19    1.25
  -2   8  -2   12.06    1.47
  -2   8  -2   11.75    0.99
   2  -8   3   -1.40    1.19
   2  -8   3   -0.76    0.61
  -2   8  -3   -0.82    1.19
  -2   8  -3    0.19    0.69
   2  -8   4    0.17    1.28
  -2   8  -4    0.60    1.16
  -2   8  -4    0.16    0.58
   2  -8   5    2.96    1.34
  -2   8  -5    0.36    1.03
  -2   8  -5   -0.56    0.70
  -2   8  -5   -0.57    0.92
   2  -8   6    1.97    1.41
  -2   8  -6   -0.94    0.95
  -2   8  -6   -0.21    0.82
   2  -8   7    2.23    1.51
  -2   8  -7    1.02    0.83
  -2   8  -7   -0.01    0.91
   2  -8   8    5.68    2.28
  -2   8  -8    0.72    1.13
   2  -8   9    9.38    2.43
  -2   8  -9    0.54    1.06
   2  -8  10    1.04    2.47
  -2   8 -10    1.20    1.19
   2  -8  11    1.60    2.68
  -2   8 -11   -0.66    1.25
   2  -8  12    6.30    2.30
  -2   8 -12    2.24    1.47
   2  -8  13    6.01    2.33
  -2   8 -13   -0.60    1.06
   2  -8  14    1.95    2.43
  -2   8 -14    0.30    1.36
  -2   6  14    6.73    3.67
   2  -6 -13    6.04    2.71
  -2   6  13    1.95    3.14
   2  -6 -12    0.06    3.53
  -2   6  12    3.69    2.58
   2  -6 -10    1.39    2.07
  -2   6  10    3.67    2.02
   2  -6  -9    5.28    1.87
  -2   6   9    2.42    1.83
   2  -6  -8    5.37    1.83
  -2   6   8    6.81    2.01
   2  -6  -7    4.52    1.51
  -2   6   7    1.15    1.65
   2  -6  -6   41.76    3.08
  -2   6   6   41.52    2.82
   2  -6  -5   10.77    1.56
  -2   6   5   12.76    1.52
   2  -6  -4   14.00    1.52
  -2   6   4   12.50    1.48
   2  -6  -3    3.22    1.08
  -2   6   3    4.59    1.13
   2  -6  -2    5.50    1.10
  -2   6   2    8.53    1.18
   2  -6  -1   52.78    2.01
  -2   6   1   23.97    1.89
   2  -6   0  392.35   20.22
  -2   6   0  324.03   19.52
  -2   6   0  327.13   17.05
   2  -6   1   30.52    1.96
   2  -6   1   32.45    1.93
  -2   6  -1   30.06    1.88
   2  -6   2    7.84    1.24
   2  -6   2    7.06    0.85
  -2   6  -2    7.56    1.24
  -2   6  -2    9.64    1.02
   2  -6   3    2.00    1.21
  -2   6  -3    0.97    1.16
  -2   6  -3    3.79    0.75
   2  -6   4   16.18    1.87
  -2   6  -4   20.75    1.71
  -2   6  -4   22.64    1.37
   2  -6   5   12.05    1.82
  -2   6  -5   19.30    1.38
  -2   6  -5   15.09    1.08
   2  -6   6   43.10    4.22
  -2   6  -6   46.98    2.56
   2  -6   7    3.26    1.44
  -2   6  -7    4.45    1.12
   2  -6   8    6.85    1.95
  -2   6  -8    6.61    1.57
   2  -6   9    3.42    1.81
  -2   6  -9    1.42    1.27
   2  -6  10    2.63    1.92
  -2   6 -10    1.16    1.41
   2  -6  11    2.21    1.85
  -2   6 -11    1.54    1.51
   2  -6  12   -0.62    1.92
  -2   6 -12    0.84    1.14
   2  -6  13    1.67    2.88
  -2   6 -13    0.42    1.67
   2  -6  14    4.36    2.97
  -2   6 -14   -0.31    1.23
   2  -4 -14   -1.25    2.40
  -2   4  14    6.05    3.16
   2  -4 -13    2.34    2.52
  -2   4  13    4.68    3.01
   2  -4 -12   -0.99    2.15
  -2   4  12    0.44    2.39
  -2   4  11    0.29    2.18
   2  -4 -10   -0.17    1.97
  -2   4  10    2.31    1.95
  -2   4  10    3.26    1.98
   2  -4  -9    2.20    1.70
  -2   4   9   -2.76    1.68
   2  -4  -8    0.76    1.51
  -2   4   8    2.35    1.73
   2  -4  -7    2.32    1.37
  -2   4   7    1.75    1.51
   2  -4  -6    1.85    1.33
  -2   4   6    1.56    1.26
   2  -4  -5    0.97    1.15
  -2   4   5    1.90    1.11
   2  -4  -4    7.25    1.58
  -2   4   4    4.74    1.19
   2  -4  -3    8.73    1.20
  -2   4   3   13.63    1.34
   2  -4  -2   13.99    1.28
  -2   4   2   16.17    1.38
   2  -4  -1   14.21    1.16
  -2   4   1   16.37    1.19
   2  -4   0   32.99    1.45
  -2   4   0   34.84    1.38
   2  -4   1   12.23    1.20
  -2   4  -1   14.08    1.52
  -2   4  -1   19.01    1.47
   2  -4   2   22.14    1.47
  -2   4  -2   24.63    2.02
  -2   4  -2   26.68    1.40
   2  -4   3   12.63    1.45
  -2   4  -3   15.13    1.34
  -2   4  -3   15.71    0.99
   2  -4   4    6.24    1.18
  -2   4  -4    4.90    0.71
  -2   4  -4    5.57    0.55
   2  -4   5    3.01    1.14
  -2   4  -5    3.25    0.89
   2  -4   6    4.14    1.91
  -2   4  -6    1.50    1.32
   2  -4   7    2.78    1.81
  -2   4  -7    0.59    1.24
   2  -4   8    1.85    1.43
  -2   4  -8    0.35    1.60
   2  -4   9    4.34    1.60
  -2   4  -9    0.64    1.53
   2  -4  10    4.28    2.28
  -2   4 -10   -1.00    1.66
   2  -4  11    5.95    2.49
  -2   4 -11   -0.45    1.27
   2  -4  12    5.85    2.79
  -2   4 -12    1.12    1.85
   2  -4  13    5.48    2.21
  -2   4 -13   -0.65    1.48
   2  -4  14   -1.88    2.07
  -2   4 -14   -0.66    1.49
   2  -2 -15    4.14    2.33
  -2   2  15    0.87    3.44
  -2   2  13    3.43    3.01
   2  -2 -12    3.32    2.15
  -2   2  11   -1.46    2.15
   2  -2 -10    2.08    1.93
  -2   2  10    3.01    1.94
   2  -2  -9   -0.73    1.62
  -2   2   9   -0.34    2.24
   2  -2  -8    0.84    1.44
  -2   2   8   -1.84    1.65
   2  -2  -7    1.63    1.28
  -2   2   7   -0.47    1.42
   2  -2  -6    4.63    1.38
  -2   2   6    2.84    1.29
   2  -2  -5    1.08    1.01
  -2   2   5   -1.19    1.00
   2  -2  -4    3.03    0.96
  -2   2   4    1.53    1.05
   2  -2  -3   23.64    1.45
  -2   2   3   20.94    1.51
   2  -2  -2    1.10    0.85
  -2   2   2    1.28    0.85
   2  -2  -1    8.20    0.76
  -2   2   1    9.98    0.83
   2  -2   1    3.13    0.69
  -2   2  -1    1.64    0.72
   2  -2   2    7.03    1.05
  -2   2  -2    5.47    0.74
  -2   2  -2    6.39    1.23
   2  -2   3   32.63    2.00
  -2   2  -3   26.98    1.32
   2  -2   4    4.31    1.04
  -2   2  -4    4.38    1.02
   2  -2   5   -0.05    0.99
  -2   2  -5    1.73    1.29
   2  -2   6    8.10    1.75
  -2   2  -6    2.94    1.23
   2  -2   7    0.90    1.58
  -2   2  -7    1.64    1.07
   2  -2   8    1.95    1.71
  -2   2  -8    0.38    1.36
   2  -2   9    3.28    2.00
  -2   2  -9    2.22    1.78
   2  -2  10    6.26    2.26
  -2   2 -10    3.06    1.51
   2  -2  11    1.16    1.68
  -2   2 -11    1.87    1.49
   2  -2  12    2.90    1.94
  -2   2 -12    5.36    2.22
   2  -2  13    5.78    2.89
  -2   2 -13    2.54    1.83
   2  -2  14    4.42    2.16
  -2   2 -14    0.59    2.40
  -2   2 -15   -1.01    1.71
  -2   0  14    5.47    3.16
  -2   0  13   15.90    3.65
   2   0 -12    6.76    2.26
  -2   0  12   11.46    2.71
   2   0 -11   12.27    2.23
  -2   0  11    9.30    2.50
   2   0 -10   32.02    4.17
  -2   0  10   30.43    4.38
   2   0  -9   35.17    3.79
  -2   0   9   29.77    2.99
   2   0  -8   29.96    3.26
  -2   0   8   28.09    2.85
   2   0  -7   15.67    2.42
  -2   0   7   21.84    2.12
   2   0  -6  279.60   19.09
  -2   0   6  246.74   15.69
   2   0  -5  114.72    5.26
  -2   0   5  116.12    5.37
   2   0  -4  113.11    5.93
  -2   0   4  123.39    5.43
   2   0  -3  112.69    4.49
  -2   0   3  120.50    4.80
   2   0  -2  255.45   10.94
  -2   0   2  249.82   10.58
  -2   0  -1  247.65   10.42
   2   0   2  246.54    8.75
  -2   0  -2  211.65    8.42
   2   0   3  141.73    5.70
  -2   0  -3  153.53    7.09
   2   0   4  146.56    7.03
  -2   0  -4  145.15    7.33
   2   0   5  145.10    7.39
  -2   0  -5  143.20    7.38
   2   0   6  312.32   21.34
  -2   0  -6  291.78   20.38
   2   0   7   19.87    2.09
  -2   0  -7   17.58    2.16
   2   0   8   28.79    2.79
  -2   0  -8   30.39    2.88
   2   0   9   31.17    3.13
  -2   0  -9   29.95    3.53
   2   0  10   22.28    2.15
  -2   0 -10   19.77    2.48
   2   0  11    9.42    2.47
  -2   0 -11    9.72    2.05
   2   0  12    5.56    2.59
  -2   0 -12   12.55    2.82
   2   0  13    6.50    2.25
  -2   0 -13   12.61    2.36
   2   0  14    5.87    2.66
  -2   0 -14    0.83    2.82
   2   0  15    0.58    1.98
  -2   0 -15    0.34    1.99
   2   2 -15    4.99    2.50
  -2  -2  15   -0.55    2.46
   2   2 -14    3.27    1.95
   2   2 -13    5.46    2.89
  -2  -2  13    7.32    2.83
  -2  -2  12    0.68    2.12
   2   2 -11    1.89    1.72
  -2  -2  11    3.33    2.58
   2   2 -10    5.30    1.67
  -2  -2  10    1.89    1.81
   2   2  -9    2.47    1.40
  -2  -2   9    1.14    1.48
   2   2  -8    2.73    1.24
  -2  -2   8    1.66    1.76
   2   2  -7    2.77    1.10
  -2  -2   7    1.57    1.75
   2   2  -6    2.44    1.06
  -2  -2   6    2.28    1.46
   2   2  -5    0.02    1.03
  -2  -2   5    0.08    0.81
   2   2  -4    3.52    1.06
  -2  -2   4    2.97    1.12
   2   2  -3   27.27    1.69
  -2  -2   3   28.27    1.25
   2   2  -2    1.44    0.63
  -2  -2   2    3.05    0.78
   2   2  -1    9.09    0.72
  -2  -2   1   15.56    1.03
   2   2   2    1.56    0.15
  -2  -2  -2    2.89    0.54
  -2  -2  -3   31.69    2.27
   2   2   4    1.63    0.87
  -2  -2  -4    1.49    1.23
   2   2   5   -0.53    0.87
  -2  -2  -5   -0.40    1.23
   2   2   6    1.05    1.69
  -2  -2  -6    1.63    1.54
   2   2   7    1.10    0.98
  -2  -2  -7    0.33    1.57
   2   2   8    1.35    1.10
  -2  -2  -8    0.47    1.48
   2   2   9    0.00    1.25
  -2  -2  -9    3.62    1.67
   2   2  10    0.42    1.59
  -2  -2 -10    3.61    1.80
   2   2  11   -0.19    1.79
  -2  -2 -11    1.34    1.85
   2   2  12    0.79    1.45
  -2  -2 -12    3.49    1.98
   2   2  13    1.11    2.26
  -2  -2 -13    3.76    2.22
   2   2  14   -0.71    1.65
  -2  -2 -14    0.35    2.15
   2   2  15    3.92    2.48
  -2  -2 -15    1.52    2.36
   2   4 -15   -1.22    1.57
  -2  -4  15    4.89    3.90
   2   4 -14    3.62    2.15
  -2  -4  14   -5.27    2.60
   2   4 -13    2.46    1.73
  -2  -4  13   -0.11    2.19
   2   4 -12    3.30    1.65
  -2  -4  12    1.34    2.67
  -2  -4  11    2.84    1.79
   2   4 -10    1.64    1.83
  -2  -4  10   -2.03    1.97
   2   4  -9    1.73    1.67
  -2  -4   9    0.84    1.76
   2   4  -8    1.88    1.51
  -2  -4   8    1.46    1.53
   2   4  -7    1.01    1.30
  -2  -4   7    2.83    1.12
   2   4  -6    3.75    0.93
  -2  -4   6    3.17    1.25
   2   4  -5    4.70    1.02
  -2  -4   5    3.28    1.03
   2   4  -4    7.75    1.03
  -2  -4   4    9.45    1.04
   2   4  -3   15.04    0.96
  -2  -4   3   14.05    0.94
   2   4  -2   19.62    1.05
  -2  -4   2   23.87    1.28
   2   4  -1   16.75    1.04
  -2  -4   1   12.05    0.77
  -2  -4  -1    6.71    0.38
  -2  -4  -1    9.33    0.64
  -2  -4  -2   17.90    1.23
   2   4   3    8.25    1.14
  -2  -4  -3   16.13    1.62
   2   4   4    8.89    1.80
  -2  -4  -4    9.83    1.64
   2   4   5    1.35    2.14
  -2  -4  -5    2.87    1.47
   2   4   6    1.05    1.78
  -2  -4  -6    5.95    1.90
   2   4   7    8.68    2.37
  -2  -4  -7   -0.93    1.84
   2   4   8   12.10    2.17
  -2  -4  -8    3.40    1.88
   2   4   9    2.56    2.03
  -2  -4  -9    0.02    1.73
   2   4  10    1.25    1.40
  -2  -4 -10   -0.31    1.95
   2   4  11    1.83    1.57
  -2  -4 -11    2.15    2.07
   2   4  12    1.95    1.82
  -2  -4 -12    3.18    2.22
   2   4  13    0.33    1.41
  -2  -4 -13    2.53    2.35
   2   4  14    1.24    2.01
  -2  -4 -14   -0.45    2.41
  -2  -6  15    5.09    3.84
  -2  -6  14   -6.91    3.41
   2   6 -13    2.72    2.12
  -2  -6  13   -2.03    2.81
  -2  -6  13    5.05    2.17
   2   6 -12    0.78    1.93
  -2  -6  12   -3.06    2.21
   2   6 -11    0.96    1.88
  -2  -6  11    0.23    2.09
  -2  -6  11    5.12    2.13
   2   6 -10    1.31    1.70
  -2  -6  10    2.37    1.37
   2   6  -9    2.32    1.60
  -2  -6   9    6.40    1.61
   2   6  -8    8.61    1.60
  -2  -6   8    9.45    1.62
   2   6  -7    1.03    1.17
  -2  -6   7    5.15    1.16
   2   6  -6   57.82    3.07
  -2  -6   6   66.42    3.40
   2   6  -5   19.28    1.30
  -2  -6   5   19.84    1.45
   2   6  -4   20.84    1.00
  -2  -6   4   23.53    1.10
   2   6  -3    5.42    0.62
  -2  -6   3    4.69    0.63
  -2  -6   2    8.31    0.60
  -2  -6   1   46.43    1.75
  -2  -6   1   28.08    1.42
  -2  -6   0  344.67   16.17
  -2  -6   0  345.27   14.65
   2   6   1   33.09    1.46
  -2  -6  -1   29.28    2.03
   2   6   2    7.11    0.63
   2   6   2    6.65    1.55
  -2  -6  -2    9.27    1.45
   2   6   3    2.96    1.51
  -2  -6  -3    4.15    1.43
   2   6   4   22.94    2.33
  -2  -6  -4   18.63    2.24
   2   6   5   13.41    2.17
  -2  -6  -5   16.16    2.14
   2   6   6   42.67    3.87
  -2  -6  -6   52.58    4.52
   2   6   7    3.92    1.80
  -2  -6  -7    2.19    2.03
   2   6   8   10.38    2.25
  -2  -6  -8    5.54    2.88
   2   6   9    2.16    2.02
  -2  -6  -9   -0.75    1.94
   2   6  10    2.30    2.39
  -2  -6 -10    3.77    2.90
   2   6  11    0.13    1.56
  -2  -6 -11    2.18    2.24
   2   6  12    1.96    1.79
  -2  -6 -12   -0.01    3.22
   2   6  13    2.82    1.83
  -2  -6 -13    4.06    2.61
   2   6  14    0.02    1.35
  -2  -6 -14    5.03    2.66
   2   8 -14    1.65    1.23
  -2  -8  14    4.73    3.61
   2   8 -13    0.70    1.75
  -2  -8  13   -0.61    3.25
   2   8 -12   -0.02    1.72
  -2  -8  12   -1.67    2.80
   2   8 -11    3.57    1.72
  -2  -8  11    2.66    2.67
  -2  -8  11    3.33    2.03
   2   8 -10    0.43    1.46
  -2  -8  10    0.28    2.26
  -2  -8  10    1.13    1.66
   2   8  -9    1.18    1.29
  -2  -8   9    5.00    1.94
  -2  -8   9   -0.22    1.45
   2   8  -8   -0.07    1.11
  -2  -8   8    6.09    1.76
  -2  -8   8    1.16    1.07
   2   8  -7    0.39    0.89
  -2  -8   7    2.63    1.08
   2   8  -6   -0.09    0.73
  -2  -8   6    2.48    1.45
  -2  -8   6    1.70    0.83
   2   8  -5    0.53    0.60
  -2  -8   5    1.44    1.22
  -2  -8   5    0.35    0.70
  -2  -8   4   -1.57    1.08
  -2  -8   4    0.48    0.49
  -2  -8   3    0.61    1.08
  -2  -8   3    0.18    0.36
  -2  -8   2    7.80    1.25
  -2  -8   2    7.94    0.56
  -2  -8   1   13.65    1.11
  -2  -8   1    1.15    0.83
   2   8   0   55.86    2.87
  -2  -8   0   49.03    1.78
   2   8   1    0.62    1.02
   2   8   1    1.04    0.71
  -2  -8  -1    0.89    0.69
  -2  -8  -1    0.77    0.78
   2   8   2   13.63    0.91
   2   8   2   12.48    1.80
  -2  -8  -2   15.36    1.70
   2   8   3    1.39    0.55
   2   8   3    0.69    1.39
  -2  -8  -3   -0.31    1.38
   2   8   4   -0.66    1.43
  -2  -8  -4   -0.64    1.45
   2   8   5    1.11    1.50
  -2  -8  -5   -0.98    1.79
   2   8   6    0.96    1.61
  -2  -8  -6   -0.21    1.98
   2   8   7   -1.01    1.72
  -2  -8  -7   -1.79    1.79
   2   8   8   -1.75    1.94
  -2  -8  -8   -1.53    1.97
   2   8   9   -1.37    2.01
  -2  -8  -9    1.95    2.03
   2   8  10    3.61    2.33
  -2  -8 -10    0.02    2.28
   2   8  11    5.00    2.78
  -2  -8 -11    3.62    2.58
   2   8  12   -3.11    1.84
  -2  -8 -12    0.31    2.58
   2   8  14    0.39    1.57
  -2  -8 -14    0.45    2.82
   2  10 -14    0.32    1.04
  -2 -10  14    2.36    3.72
   2  10 -13    1.91    1.49
  -2 -10  13    6.41    5.01
   2  10 -12    0.79    1.51
  -2 -10  12    4.25    3.41
   2  10 -11    0.15    1.40
  -2 -10  11    1.53    3.21
   2  10 -10    0.64    1.22
  -2 -10  10   -0.57    2.67
   2  10  -9    0.23    1.01
  -2 -10   9    0.04    2.40
   2  10  -8    1.05    0.85
  -2 -10   8   -3.33    2.15
   2  10  -7    0.88    0.73
  -2 -10   7    3.14    1.91
   2  10  -6    1.06    0.40
  -2 -10   6    0.96    1.71
  -2 -10   6    1.36    0.57
  -2 -10   5    3.90    1.57
  -2 -10   4    1.87    1.44
  -2 -10   3   -0.26    1.23
  -2 -10   3    0.78    0.37
  -2 -10   2    1.16    1.17
  -2 -10   2    2.84    0.76
  -2 -10   2    3.27    0.63
   2  10  -1    3.09    0.96
  -2 -10   1    6.98    1.28
  -2 -10   1    2.34    0.91
   2  10   0   23.43    1.61
  -2 -10   0   23.45    1.31
   2  10   1    0.72    1.12
   2  10   1    2.11    1.12
  -2 -10  -1    0.15    1.02
  -2 -10  -1   -0.62    0.99
   2  10   2    2.47    0.83
   2  10   2    2.24    1.36
  -2 -10  -2    4.57    1.35
   2  10   3    0.96    0.64
   2  10   3    1.39    1.41
  -2 -10  -3    0.41    1.64
   2  10   4    1.64    0.51
   2  10   4    3.35    1.51
  -2 -10  -4    0.70    1.84
   2  10   5    0.95    1.62
  -2 -10  -5    0.65    1.93
   2  10   6    7.31    1.86
  -2 -10  -6   -0.25    1.98
   2  10   7    0.16    1.75
  -2 -10  -7   -1.00    1.90
   2  10   8   -0.01    1.95
  -2 -10  -8   -1.74    2.19
   2  10   9    1.27    2.10
  -2 -10  -9    0.81    3.06
   2  10  10    0.72    2.27
  -2 -10 -10   -0.55    2.35
   2  10  11    3.39    2.65
  -2 -10 -11   -0.43    2.63
   2  10  12   -1.75    1.85
  -2 -10 -12   -3.46    2.84
   2  10  13    5.83    2.19
  -2 -10 -13    2.63    3.27
   2  10  14    2.33    1.45
  -2 -10 -14   -5.70    3.13
  -2 -12  14    3.34    4.29
   2  12 -13    0.74    0.80
  -2 -12  13   10.97    3.92
   2  12 -12   -1.69    1.11
  -2 -12  12   10.17    3.69
   2  12 -11    0.57    1.05
  -2 -12  11   15.23    3.57
   2  12 -10   -0.70    1.13
  -2 -12  10    0.89    3.13
  -2 -12   8   36.88    5.28
  -2 -12   7   42.66    5.06
  -2 -12   6   58.01    5.43
  -2 -12   5   49.79    4.18
  -2 -12   4   33.72    2.92
  -2 -12   3   28.37    1.01
  -2 -12   3   26.61    0.83
  -2 -12   2  141.69    6.65
  -2 -12   2  120.59    5.41
   2  12  -1  115.45    5.86
  -2 -12   1  127.85    5.47
  -2 -12   1  114.79    6.16
   2  12   0  180.76   10.70
  -2 -12   0  160.21    9.69
   2  12   1  155.99    7.71
   2  12   1  115.08    8.06
  -2 -12  -1  117.12    8.41
   2  12   2  136.07    5.03
   2  12   2  110.16    7.34
  -2 -12  -2  134.54   10.55
   2  12   3   36.86    3.16
  -2 -12  -3   42.97    3.81
   2  12   4   19.02    2.36
  -2 -12  -4   17.85    2.52
   2  12   5   32.88    1.28
   2  12   5   31.93    3.15
  -2 -12  -5   38.04    3.47
   2  12   6   13.80    2.37
  -2 -12  -6    4.66    2.64
   2  12   7    5.13    2.18
  -2 -12  -7    4.77    2.47
   2  12   8    3.64    2.28
  -2 -12  -8    4.81    2.66
   2  12   9   -1.18    2.25
  -2 -12  -9   -3.65    2.56
   2  12  10   -1.00    2.35
  -2 -12 -10    0.71    2.62
   2  12  11    1.55    2.72
  -2 -12 -11    2.26    3.95
  -2 -12 -12    2.97    3.16
   2  12  13   -1.42    2.00
  -2 -12 -13    4.89    3.18
  -2 -12 -14    1.38    3.37
  -2 -14  13   -4.29    4.57
  -2 -14  12    0.71    5.33
  -2 -14  11    6.38    4.21
  -2 -14  10    5.19    3.67
  -2 -14   9    3.00    3.23
  -2 -14   8    8.10    3.27
  -2 -14   7    8.51    2.78
  -2 -14   6   26.42    3.56
  -2 -14   5    5.97    2.04
  -2 -14   4    9.95    1.69
  -2 -14   3   12.11    0.75
  -2 -14   3   14.78    0.67
   2  14  -2   41.85    2.54
  -2 -14   2   42.27    3.33
  -2 -14   2   35.22    1.84
   2  14  -1   46.00    2.59
  -2 -14   1   37.08    3.02
  -2 -14   1   33.93    2.20
  -2 -14   0   35.54    2.13
  -2 -14   0   33.51    2.45
   2  14   1   52.72    3.47
   2  14   1   41.97    3.70
  -2 -14  -1   48.97    3.07
   2  14   2   40.96    2.47
   2  14   2   38.53    2.97
  -2 -14  -2   37.56    2.93
   2  14   3   13.11    2.00
  -2 -14  -3   11.43    2.77
   2  14   4    2.27    1.69
  -2 -14  -4    2.56    1.80
   2  14   5    0.54    1.78
  -2 -14  -5    2.28    1.95
   2  14   6    3.77    1.87
  -2 -14  -6   -3.87    2.12
   2  14   7   -1.04    1.98
  -2 -14  -7    0.16    2.32
   2  14   8   -2.18    2.23
  -2 -14  -8   -3.04    2.66
   2  14   9   -0.06    2.23
  -2 -14  -9   -1.48    2.64
   2  14  10    1.55    2.45
  -2 -14 -10    0.93    2.84
   2  14  11   -4.95    2.79
  -2 -14 -11   -0.50    3.19
   2  14  13   -0.09    1.98
  -2 -14 -13    1.90    3.38
  -2 -16  13   -6.37    4.53
  -2 -16  12    5.66    4.18
  -2 -16  11    0.89    4.07
  -2 -16  10    5.80    4.02
  -2 -16   9    5.89    3.58
  -2 -16   8    4.69    3.14
  -2 -16   7   -3.22    2.31
  -2 -16   6    6.82    2.20
  -2 -16   5    5.32    1.81
  -2 -16   4    2.55    1.51
  -2 -16   3    8.84    1.57
  -2 -16   3    4.73    0.72
   2  16  -2   15.57    1.64
  -2 -16   2   14.85    1.79
  -2 -16   2   11.07    1.27
   2  16  -1   27.78    2.22
  -2 -16   1   24.87    1.94
  -2 -16   0   35.00    2.28
  -2 -16   0   28.22    2.58
   2  16   1   25.50    2.46
   2  16   1   15.96    2.54
  -2 -16  -1   22.88    1.70
   2  16   2   13.62    1.56
   2  16   2   10.40    1.83
  -2 -16  -2    7.43    1.88
   2  16   3    4.08    1.70
  -2 -16  -3    3.25    1.80
   2  16   4    7.10    1.16
   2  16   4    5.71    1.95
  -2 -16  -4    2.17    2.07
   2  16   5    2.51    1.88
  -2 -16  -5   -2.85    2.04
   2  16   6   -0.04    2.04
  -2 -16  -6   -3.02    2.29
   2  16   7   -0.97    2.20
  -2 -16  -7   -4.67    2.58
   2  16   8    1.17    1.11
   2  16   8    0.86    2.21
  -2 -16  -8   -2.87    2.66
   2  16   9   -0.21    0.87
   2  16   9    5.33    2.30
  -2 -16  -9    1.19    2.76
   2  16  10   -1.88    2.47
  -2 -16 -10    1.91    2.97
   2  16  11   -2.57    2.78
  -2 -16 -11   -0.07    3.29
  -2 -16 -12    0.80    3.45
  -2 -16 -13    2.86    5.05
  -2 -18  12   -8.37    4.82
  -2 -18  11    3.81    4.03
  -2 -18  10   -0.84    3.38
  -2 -18   9    1.84    3.13
  -2 -18   8   -3.29    2.84
  -2 -18   7    7.88    2.68
  -2 -18   6    5.34    2.22
  -2 -18   5    6.03    2.05
  -2 -18   4    5.75    1.83
  -2 -18   3   19.52    2.05
  -2 -18   3    7.85    0.91
   2  18  -2   28.42    2.35
  -2 -18   2   21.21    1.66
  -2 -18   1   42.93    2.67
  -2 -18   1   38.04    2.68
  -2 -18   0   55.91    3.21
  -2 -18   0   42.94    3.60
   2  18   1   33.15    3.51
  -2 -18  -1   38.79    2.34
  -2 -18  -1   41.11    2.82
   2  18   2   33.10    2.20
   2  18   2   21.64    2.72
  -2 -18  -2   33.52    2.93
   2  18   3   14.47    1.62
   2  18   3    6.98    2.12
  -2 -18  -3   10.41    2.26
   2  18   4    8.80    1.36
   2  18   4    3.17    2.17
  -2 -18  -4    5.28    2.25
   2  18   5   10.25    1.43
   2  18   5    1.62    2.44
  -2 -18  -5    7.53    2.58
   2  18   6    8.40    2.44
  -2 -18  -6    1.69    2.73
   2  18   7    2.17    2.41
  -2 -18  -7    3.90    2.78
   2  18   8   -2.80    2.52
  -2 -18  -8   -4.36    3.02
   2  18   9    1.72    1.34
   2  18   9    3.49    2.49
  -2 -18  -9    1.38    3.05
   2  18  10    1.42    1.33
   2  18  10    1.13    2.71
  -2 -18 -10    5.68    3.25
   2  18  11    1.13    1.71
   2  18  11    4.89    2.89
  -2 -18 -11    2.27    3.55
  -2 -18 -12   -0.98    3.64
  -2 -20  12   -2.24    4.50
  -2 -20  11   -2.27    4.07
  -2 -20  10    7.51    4.12
  -2 -20   9   -1.63    3.22
  -2 -20   8    3.18    2.87
  -2 -20   7    1.11    2.38
  -2 -20   6    7.25    2.41
  -2 -20   5    0.62    1.94
  -2 -20   4    7.85    2.79
  -2 -20   3    1.14    0.78
   2  20  -2    5.21    1.49
  -2 -20   2    4.08    2.09
  -2 -20   2    1.55    1.07
   2  20  -1    1.24    1.43
  -2 -20   1    3.46    1.75
  -2 -20   1    3.78    1.36
   2  20   0    6.25    1.48
  -2 -20   0    2.42    1.37
   2  20   1    3.52    1.33
   2  20   1   -0.27    1.30
  -2 -20  -1    0.70    1.34
  -2 -20  -1    2.51    1.85
   2  20   2    1.93    1.60
   2  20   2   -2.53    2.03
  -2 -20  -2    0.50    2.15
   2  20   3    1.87    1.37
   2  20   3    0.03    1.76
  -2 -20  -3    2.36    1.85
   2  20   4    1.57    0.96
   2  20   4   -3.15    1.92
  -2 -20  -4   -1.33    2.00
   2  20   5    3.39    1.31
   2  20   5   -1.47    2.20
  -2 -20  -5    1.65    2.35
   2  20   6    1.76    1.31
   2  20   6   -3.29    2.28
  -2 -20  -6   -3.56    3.33
   2  20   7   -5.91    2.55
  -2 -20  -7    0.81    2.86
   2  20   8    1.17    1.33
   2  20   8    4.61    2.61
  -2 -20  -8    1.17    2.95
   2  20   9    3.69    1.35
   2  20   9   -0.20    2.73
   2  20  10    1.37    1.78
   2  20  10   -0.67    2.76
  -2 -20 -10    3.73    3.39
   2  20  11   -1.14    1.64
   2  20  11   -0.68    2.83
  -2 -20 -11    2.05    3.59
  -2 -20 -12   -1.73    3.85
  -2 -22  11    0.40    4.16
  -2 -22  10    3.51    3.99
  -2 -22   8    0.12    2.78
  -2 -22   7    6.76    2.94
  -2 -22   6    3.68    2.51
  -2 -22   5   -0.83    2.10
  -2 -22   3   -0.79    1.78
  -2 -22   3    0.94    0.72
   2  22  -2    0.35    1.43
  -2 -22   2    3.93    2.10
  -2 -22   2    1.81    1.14
   2  22  -1    1.83    1.98
  -2 -22   1   -0.87    1.78
  -2 -22   1    0.31    1.38
   2  22   0    0.21    1.44
  -2 -22   0   -1.89    1.38
  -2 -22   0    1.70    1.73
   2  22   1    1.22    1.44
   2  22   1    0.16    0.81
  -2 -22  -1    2.11    1.21
  -2 -22  -1    1.17    1.48
   2  22   2    1.20    1.34
   2  22   2   -4.03    2.18
   2  22   3    2.02    1.28
   2  22   3   -0.28    1.89
  -2 -22  -3   -0.45    2.21
   2  22   4    1.31    1.46
   2  22   4    1.45    2.09
  -2 -22  -4   -1.23    2.44
   2  22   5    2.09    1.09
   2  22   5   -0.53    2.43
  -2 -22  -5    0.69    2.61
   2  22   6   -3.40    2.76
  -2 -22  -6   -3.45    2.83
   2  22   7    0.75    2.68
   2  22   8    0.47    1.47
   2  22   8   -0.56    2.72
   2  22   9    1.07    1.48
  -2 -22  -9    2.78    2.68
   2  22  10    3.04    1.75
   2  22  10   -0.90    2.95
  -2 -22 -10   -3.56    2.68
  -2 -22 -11   -0.59    3.73
  -2 -24  10    0.05    3.95
  -2 -24   9    6.65    3.87
  -2 -24   7    2.55    2.83
  -2 -24   6    3.96    2.66
  -2 -24   5    2.96    2.36
  -2 -24   4    2.65    2.97
  -2 -24   3    0.96    2.45
  -2 -24   3    0.44    0.78
   2  24  -2    0.07    1.47
  -2 -24   2   -1.44    2.25
  -2 -24   2    0.44    1.17
   2  24  -1    0.76    1.64
  -2 -24   1    1.81    1.85
  -2 -24   1    1.75    1.59
   2  24   0    2.93    1.70
  -2 -24   0    3.48    1.73
  -2 -24   0    6.53    2.01
   2  24   1   -2.69    2.18
  -2 -24  -1    1.14    1.48
  -2 -24  -1   -0.41    1.76
   2  24   2    3.38    1.49
   2  24   2   -4.67    1.67
  -2 -24  -2    0.60    2.75
   2  24   3    1.73    1.99
   2  24   4    2.94    1.48
  -2 -24  -4    3.83    2.80
   2  24   5    4.81    2.68
  -2 -24  -5    1.16    2.99
   2  24   6    2.74    2.88
  -2 -24  -6    2.58    3.10
   2  24   7   -0.78    2.95
  -2 -24  -7    3.20    2.96
   2  24   8    4.73    3.14
  -2 -24  -8    0.29    3.03
   2  24   9   -1.02    1.51
   2  24   9    8.81    3.09
   2  24  10    1.17    1.40
  -2 -26   9    1.37    3.57
  -2 -26   7    1.13    2.79
  -2 -26   6    3.44    2.72
  -2 -26   5    2.22    2.52
  -2 -26   4    2.53    2.95
  -2 -26   3   -0.13    2.80
  -2 -26   3    2.68    0.81
   2  26  -2   -0.36    1.60
  -2 -26   2    1.39    2.19
  -2 -26   2    0.77    1.26
   2  26  -1    2.77    1.77
  -2 -26   1    2.14    2.08
   2  26   0    2.79    1.82
  -2 -26   0    4.89    1.96
   2  26   1    0.96    1.75
  -2 -26  -1    3.18    2.54
   2  26   2    7.73    2.38
   2  26   2    1.28    1.11
  -2 -26  -2    3.18    2.19
   2  26   3    1.36    1.62
   2  26   3   -1.13    2.04
  -2 -26  -3   -1.79    2.43
   2  26   4    0.91    2.16
   2  26   4    0.87    2.46
  -2 -26  -4    3.37    2.84
   2  26   5    7.40    2.95
  -2 -26  -5    0.55    3.27
   2  26   6    3.62    1.43
   2  26   6   -0.94    3.17
  -2 -26  -6    4.36    3.37
   2  26   7    9.59    3.45
  -2 -26  -7   -0.52    3.51
   2  26   8    1.07    3.35
  -2 -26  -8    1.57    3.25
   2  26   9    2.39    1.61
  -2 -26  -9   -0.07    3.29
  -2 -28   8    3.08    3.30
  -2 -28   7    3.56    3.15
  -2 -28   6    9.37    3.30
  -2 -28   5    3.52    3.49
  -2 -28   4    0.08    3.07
  -2 -28   3   11.51    2.71
  -2 -28   3    2.59    0.99
  -2 -28   2   -1.83    2.43
  -2 -28   2    2.04    1.36
   2  28  -1    2.27    1.85
  -2 -28   1    6.03    2.34
  -2 -28   1    6.28    1.98
   2  28   0    6.84    1.95
  -2 -28   0    3.49    2.36
  -2 -28   0    4.72    1.88
   2  28   1    8.99    2.11
   2  28   2    5.72    1.99
  -2 -28  -2    3.78    2.46
   2  28   3    4.31    2.71
   2  28   4    2.02    1.79
   2  28   4   -1.05    1.59
  -2 -28  -4    5.02    2.82
   2  28   5   -4.31    2.95
  -2 -28  -5    1.99    3.10
   2  28   6    3.17    3.57
  -2 -28  -6    8.51    3.62
  -2 -30   6    2.77    3.82
  -2 -30   5   -2.53    3.57
  -2 -30   4   -1.01    2.91
  -2 -30   3    0.93    2.66
  -2 -30   3    0.27    0.94
  -2 -30   2   -2.76    2.50
  -2 -30   2   -0.57    1.46
   2  30  -1    4.33    1.76
  -2 -30   1   -1.22    2.39
  -2 -30   1   -1.06    1.90
  -2 -30   1    1.80    1.41
   2  30   0   -0.98    1.88
   2  30   1    0.12    2.43
  -2 -30  -1    0.18    1.99
   2  30   2   -0.82    1.80
   2  30   3    0.51    1.82
  -2 -30  -3   -1.58    2.64
   2  30   4   -0.07    2.67
  -2 -30  -4    2.16    2.90
   2  30   5   -1.13    1.91
   2  30   5    1.00    1.84
  -2 -30  -5    1.97    3.11
  -2 -30  -6   -2.44    3.49
  -2 -32   4   -3.15    3.30
  -2 -32   3    1.48    2.91
  -2 -32   2   -0.41    2.84
  -2 -32   2    2.87    1.56
  -2 -32   1    6.04    2.98
  -2 -32   1    2.48    2.08
   2  32   0    5.32    1.98
  -2 -32   0    1.40    2.56
   2  32   1    9.21    2.40
   2  32   2    4.66    2.86
  -2 -32  -2    3.53    2.61
   2  32   3    2.10    2.01
  -2 -32  -3    2.11    2.86
   3 -33  -1    1.64    2.67
   3 -33   0    0.89    2.53
   3 -31  -5   -3.32    3.26
   3 -31  -4    2.00    2.92
  -3  31   4    3.43    2.98
   3 -31  -3   -5.46    2.65
  -3  31   3    1.64    2.64
   3 -31  -2    1.61    3.06
  -3  31   2   -0.79    1.04
  -3  31   2   -1.92    2.97
   3 -31  -1   -0.07    1.86
  -3  31   1    0.16    1.25
  -3  31   1   -0.57    1.71
   3 -31   0   -1.18    2.45
  -3  31   0    0.62    1.69
  -3  31   0    1.31    1.25
   3 -31   1   -2.18    2.17
  -3  31  -1    0.92    1.91
  -3  31  -1    0.89    1.12
   3 -31   2    0.33    1.70
  -3  31  -2    2.71    2.26
  -3  31  -2    2.34    0.88
  -3  31  -3    0.23    2.46
  -3  31  -3    0.61    0.89
  -3  31  -4    2.42    2.63
   3 -29  -7    3.53    3.31
  -3  29   7    0.19    0.34
   3 -29  -6   -2.03    3.23
  -3  29   6    7.58    4.44
   3 -29  -5    3.41    4.30
  -3  29   5    5.57    3.28
   3 -29  -4   -0.23    2.77
  -3  29   4    1.60    2.82
  -3  29   4    4.46    2.86
   3 -29  -3    0.46    3.45
  -3  29   3    2.40    0.88
  -3  29   3   -0.26    2.60
  -3  29   3    2.04    2.65
   3 -29  -2   -2.90    2.42
  -3  29   2    3.78    1.13
  -3  29   2    4.06    2.32
  -3  29   2    4.57    2.40
   3 -29  -1    1.80    2.17
  -3  29   1    4.09    1.40
  -3  29   1    5.59    1.99
  -3  29   1    1.88    2.09
   3 -29   0   -0.89    1.75
  -3  29   0    6.91    1.61
  -3  29   0    3.36    1.59
  -3  29   0    2.92    1.63
   3 -29   1    1.45    2.13
  -3  29  -1    1.79    1.98
  -3  29  -1   -0.23    1.40
   3 -29   2    2.46    1.73
  -3  29  -2    2.88    2.22
  -3  29  -2    0.58    0.95
   3 -29   3    1.40    1.05
  -3  29  -3    1.73    2.46
  -3  29  -3    1.59    0.76
   3 -29   4    1.75    2.65
  -3  29  -4   -0.42    2.70
   3 -29   5    1.92    2.71
  -3  29  -5   -0.97    3.61
   3 -29   6   -4.85    2.89
  -3  29  -6    1.62    2.62
   3 -27  -8   -0.86    3.28
  -3  27   8   -0.01    0.23
  -3  27   7    0.01    0.27
  -3  27   7    2.04    3.10
   3 -27  -6   -4.22    2.92
  -3  27   6    2.77    2.95
  -3  27   6    4.58    3.04
   3 -27  -5   -1.97    2.72
   3 -27  -5   -0.13    2.74
  -3  27   5   -1.51    2.86
   3 -27  -4    0.07    3.46
  -3  27   4    4.43    3.59
   3 -27  -3    0.20    2.31
  -3  27   3   -1.12    2.36
   3 -27  -2   -0.51    2.89
  -3  27   2   -1.13    1.09
  -3  27   2   -2.77    2.20
   3 -27  -1   -4.12    2.55
  -3  27   1   -0.06    1.28
  -3  27   1    1.06    1.92
   3 -27   0    1.29    2.15
  -3  27   0    1.86    1.56
  -3  27   0    2.80    1.66
   3 -27   1    2.97    1.49
  -3  27  -1   -1.36    1.72
  -3  27  -1    2.65    1.68
   3 -27   2    0.74    1.54
  -3  27  -2   -2.12    2.10
  -3  27  -2    1.30    1.14
   3 -27   3   -0.65    2.14
   3 -27   3    1.95    1.10
  -3  27  -3    2.62    2.33
  -3  27  -3   -0.22    0.72
   3 -27   4    1.58    2.16
   3 -27   4    2.10    0.94
  -3  27  -4   -1.67    2.58
  -3  27  -4   -0.17    0.64
   3 -27   5   -0.06    2.30
  -3  27  -5   -1.06    2.59
   3 -27   6   -2.00    2.58
  -3  27  -6   -1.57    2.75
   3 -27   7   -1.96    2.87
   3 -27   8   -2.78    3.30
  -3  25  10    0.02    0.04
  -3  25   9    0.12    0.10
   3 -25  -8    6.15    3.54
  -3  25   8    6.59    3.41
   3 -25  -7    1.55    2.90
  -3  25   7    0.20    0.25
  -3  25   7   -1.56    2.87
   3 -25  -6    4.25    2.80
  -3  25   6   -0.60    2.84
   3 -25  -5   -6.63    2.73
  -3  25   5   -2.39    2.83
   3 -25  -4    1.39    2.29
   3 -25  -4   -2.93    2.29
  -3  25   4    2.38    2.70
   3 -25  -3   -1.16    2.20
  -3  25   3    3.81    2.56
   3 -25  -2    1.57    2.16
  -3  25   2    5.02    1.58
  -3  25   2    5.70    3.43
   3 -25  -1    0.54    1.75
  -3  25   1    0.24    1.25
  -3  25   1   -1.56    2.83
   3 -25   0    1.26    2.01
  -3  25   0   -0.50    1.49
  -3  25   0   10.62    2.54
   3 -25   1    0.31    1.86
  -3  25  -1   -1.36    1.68
  -3  25  -1    4.40    2.02
   3 -25   2    2.56    1.51
  -3  25  -2    1.11    2.09
  -3  25  -2    1.31    1.55
   3 -25   3    0.11    2.46
   3 -25   3   -0.48    1.41
  -3  25  -3   -3.30    2.20
  -3  25  -3   -0.01    0.86
   3 -25   4   -1.02    1.84
   3 -25   4   -0.13    0.60
  -3  25  -4   -0.49    2.38
  -3  25  -4    0.45    0.56
  -3  25  -4    1.13    0.74
   3 -25   5    0.11    2.05
  -3  25  -5    2.43    2.50
   3 -25   6    1.68    2.26
  -3  25  -6   -0.64    2.51
   3 -25   7    0.44    2.63
  -3  25  -7    2.11    2.42
   3 -25   8    2.18    3.04
   3 -25   9   10.89    4.73
  -3  23  11    0.02    0.02
   3 -23  -9    8.11    3.48
  -3  23   9    2.30    3.21
   3 -23  -8    0.04    3.07
  -3  23   8   -4.25    2.87
   3 -23  -7    2.31    3.05
  -3  23   7    6.93    2.93
   3 -23  -6    5.91    2.89
  -3  23   6    5.94    2.86
   3 -23  -5    1.74    2.39
  -3  23   5    1.06    0.63
  -3  23   5    3.66    2.82
   3 -23  -4    4.83    2.43
  -3  23   4    4.20    0.92
  -3  23   4   10.11    3.79
   3 -23  -3    4.22    2.29
  -3  23   3    5.31    0.97
  -3  23   3    8.15    2.73
   3 -23  -2    2.95    2.09
  -3  23   2    5.44    2.10
   3 -23  -1   15.30    2.25
  -3  23   1   10.78    1.69
  -3  23   1    5.59    2.19
   3 -23   0    8.04    1.88
  -3  23   0   17.36    1.96
  -3  23   0   10.16    2.70
   3 -23   1    1.89    2.03
  -3  23  -1   11.64    1.91
  -3  23  -1    5.36    2.01
   3 -23   2    6.68    2.65
   3 -23   2    3.51    1.59
  -3  23  -2    6.97    1.94
  -3  23  -2    2.92    1.52
   3 -23   3    7.58    2.55
   3 -23   3    2.63    1.51
  -3  23  -3    4.11    2.31
  -3  23  -3    1.73    1.32
   3 -23   4    2.19    2.67
   3 -23   4    3.09    0.73
  -3  23  -4    5.17    2.52
  -3  23  -4    3.05    0.78
   3 -23   5   -1.74    2.73
  -3  23  -5    3.45    2.57
   3 -23   6    4.46    2.24
  -3  23  -6    2.76    2.63
   3 -23   7    1.89    2.89
  -3  23  -7    6.07    2.43
   3 -23   8    3.48    3.34
   3 -23   9    1.57    3.73
   3 -23  10    9.13    5.13
   3 -21 -11    4.47    3.85
   3 -21 -10    4.64    3.40
  -3  21  10    2.71    2.92
  -3  21   9    6.95    3.02
   3 -21  -8    2.71    3.01
  -3  21   8    4.23    2.68
   3 -21  -7    2.18    2.75
  -3  21   7    4.46    2.99
   3 -21  -6    0.33    2.52
  -3  21   6    2.12    0.41
  -3  21   6    7.25    2.81
   3 -21  -5    3.94    2.38
  -3  21   5    6.34    2.83
   3 -21  -4    2.85    2.16
  -3  21   4    4.04    0.80
  -3  21   4    2.99    2.16
   3 -21  -3    4.22    2.01
  -3  21   3    1.58    2.03
   3 -21  -2    5.69    1.97
  -3  21   2    4.23    2.67
   3 -21  -1   22.62    3.46
  -3  21   1   22.95    2.06
  -3  21   1   24.08    2.58
   3 -21   0   25.75    2.40
  -3  21   0   23.60    2.41
  -3  21   0   25.41    2.47
   3 -21   1   11.18    2.21
  -3  21  -1   15.64    2.08
  -3  21  -1   11.20    2.31
   3 -21   2   16.20    2.64
   3 -21   2    6.37    1.63
  -3  21  -2    5.68    2.08
  -3  21  -2    8.81    1.75
   3 -21   3    7.70    2.43
   3 -21   3    5.55    1.26
  -3  21  -3    6.99    2.33
  -3  21  -3    4.25    1.26
   3 -21   4    9.07    2.61
   3 -21   4    4.53    0.88
  -3  21  -4    3.20    2.48
  -3  21  -4    5.35    1.06
   3 -21   5    6.39    3.02
  -3  21  -5    7.94    2.89
   3 -21   6    1.05    3.36
  -3  21  -6    4.87    2.52
   3 -21   7    3.18    3.42
  -3  21  -7    1.07    2.17
   3 -21   8    1.59    3.05
   3 -21   9    1.09    3.62
   3 -21  10   -5.31    4.65
   3 -21  11   -2.78    3.82
   3 -19 -12   -0.83    3.54
  -3  19  12    0.05    2.93
  -3  19  11    1.38    2.78
   3 -19 -10   -2.36    3.04
  -3  19  10    1.45    2.55
   3 -19  -9    0.09    2.79
  -3  19   9    0.96    2.45
   3 -19  -8   -1.78    2.67
  -3  19   8   -2.13    2.40
   3 -19  -7   -3.36    2.50
  -3  19   7   -3.06    2.70
   3 -19  -6   -2.12    2.23
  -3  19   6   -1.75    2.47
   3 -19  -5   -2.49    1.96
  -3  19   5    1.26    0.71
  -3  19   5   -0.30    1.90
   3 -19  -4    2.04    1.75
  -3  19   4    0.55    0.70
  -3  19   4   -2.74    2.40
   3 -19  -3    1.05    1.77
  -3  19   3    3.62    0.95
  -3  19   3    1.75    1.78
   3 -19  -2    2.84    2.28
  -3  19   2    4.49    1.36
  -3  19   2    2.45    1.76
   3 -19  -1    2.88    2.04
  -3  19   1    2.09    1.23
  -3  19   1    3.37    2.08
   3 -19   0   -0.98    1.68
  -3  19   0    2.03    1.36
   3 -19   1    3.43    1.55
  -3  19  -1    2.14    1.56
  -3  19  -1    4.68    1.68
   3 -19   2    1.38    1.99
   3 -19   2    2.94    1.27
  -3  19  -2    1.17    1.67
  -3  19  -2    3.66    1.43
   3 -19   3    2.18    1.97
   3 -19   3    0.77    1.06
  -3  19  -3    1.95    1.70
  -3  19  -3    1.67    1.13
   3 -19   4   -2.64    2.26
  -3  19  -4   -2.89    2.13
   3 -19   5    1.09    2.62
  -3  19  -5    1.40    2.32
  -3  19  -5    1.12    0.60
   3 -19   6   -2.32    3.06
  -3  19  -6   -3.43    2.21
   3 -19   7   -0.30    3.23
  -3  19  -7   -2.23    1.97
   3 -19   8   -1.37    2.64
   3 -19   9   -1.88    2.79
   3 -19  10    1.94    2.93
   3 -19  11    0.52    3.03
   3 -17 -13    0.59    3.56
   3 -17 -11    1.33    3.36
  -3  17  11    5.22    2.80
   3 -17 -10   -3.09    2.90
  -3  17  10    0.01    2.42
   3 -17  -9    0.72    2.73
  -3  17   9    2.21    2.32
  -3  17   8    1.97    2.57
   3 -17  -7    4.41    2.39
  -3  17   7    1.43    2.52
   3 -17  -6    1.74    2.11
  -3  17   6    1.92    1.96
   3 -17  -5    1.25    1.98
  -3  17   5    5.42    1.89
   3 -17  -4    2.52    1.75
  -3  17   4    1.60    1.76
   3 -17  -3   10.17    2.81
  -3  17   3   14.17    1.23
  -3  17   3   11.28    2.92
   3 -17  -2   24.66    3.22
  -3  17   2   26.49    1.81
  -3  17   2   16.03    2.56
   3 -17  -1   43.39    3.99
  -3  17   1   43.23    3.21
  -3  17   1   39.55    4.00
   3 -17   0   42.53    3.31
  -3  17   0   37.74    2.79
  -3  17   0   38.55    2.77
   3 -17   1   29.82    3.48
   3 -17   1   31.62    2.56
  -3  17  -1   27.99    2.69
   3 -17   2   19.81    3.76
   3 -17   2   24.13    1.94
  -3  17  -2   19.93    2.44
  -3  17  -2   19.57    2.41
   3 -17   3    5.26    2.10
  -3  17  -3    6.41    1.82
  -3  17  -3    4.69    1.14
   3 -17   4    3.02    2.28
   3 -17   4    5.01    1.00
  -3  17  -4    5.42    2.17
  -3  17  -4    7.28    1.21
   3 -17   5   -2.57    2.84
  -3  17  -5    8.97    2.36
  -3  17  -5    6.12    0.97
   3 -17   6    2.19    2.83
  -3  17  -6   -2.73    2.05
   3 -17   7    0.28    2.34
  -3  17  -7    0.72    1.79
   3 -17   8    1.24    3.37
   3 -17   9    0.12    2.54
   3 -17  10    5.21    3.01
   3 -17  11    1.59    2.94
   3 -17  12    7.22    3.47
  -3  15  13    1.75    3.14
   3 -15 -12   -0.19    3.16
   3 -15 -11    2.45    3.18
  -3  15  11    4.41    2.72
   3 -15 -10   -1.85    2.72
  -3  15  10    3.51    2.32
   3 -15  -9    5.21    2.57
  -3  15   9   -1.04    2.54
   3 -15  -8    0.92    2.57
  -3  15   8    9.15    2.62
   3 -15  -7    2.87    2.25
  -3  15   7    4.31    1.99
   3 -15  -6    7.88    2.24
  -3  15   6    8.58    2.77
   3 -15  -5    0.48    2.31
  -3  15   5    2.21    1.71
   3 -15  -4    4.02    1.50
  -3  15   4   -3.90    2.13
   3 -15  -3   12.16    1.92
  -3  15   3   15.18    1.19
  -3  15   3   13.80    2.05
   3 -15  -2   28.30    2.29
  -3  15   2   25.59    1.82
  -3  15   2   24.85    2.44
   3 -15  -1   37.35    3.51
  -3  15   1   43.20    3.01
  -3  15   1   39.64    2.78
   3 -15   0   41.84    2.48
  -3  15   0   41.05    2.78
  -3  15   0   42.85    2.62
   3 -15   1   34.10    3.24
   3 -15   1   32.79    2.49
  -3  15  -1   32.15    2.73
  -3  15  -1   34.64    2.63
   3 -15   2   25.18    2.46
  -3  15  -2   17.73    2.17
  -3  15  -2   14.05    1.77
   3 -15   3    3.43    1.83
   3 -15   3    4.31    0.92
  -3  15  -3   -0.07    2.16
  -3  15  -3    1.99    1.03
   3 -15   4   11.07    2.50
   3 -15   4    8.30    1.01
  -3  15  -4    5.68    2.14
   3 -15   5   12.62    3.14
  -3  15  -5   13.69    2.56
   3 -15   6   10.04    2.55
  -3  15  -6    8.92    2.30
  -3  15  -6   12.33    1.02
   3 -15   7    8.33    2.56
  -3  15  -7    7.83    1.86
  -3  15  -7    6.49    0.68
   3 -15   8    1.89    2.30
  -3  15  -8    0.07    0.63
  -3  15  -8    1.35    0.69
  -3  15  -9   -0.18    0.51
  -3  15  -9    0.37    0.89
  -3  15 -10   -0.28    0.55
  -3  15 -10    1.43    1.05
   3 -15  11    2.75    2.81
  -3  15 -11    1.66    0.70
  -3  15 -11    1.41    1.47
   3 -15  12    4.17    3.09
  -3  15 -12    4.20    1.35
   3 -13 -14    2.05    3.43
  -3  13  13    0.09    2.96
   3 -13 -12   -3.93    2.94
  -3  13  12    3.00    2.67
   3 -13 -11   -0.51    2.86
  -3  13  11   -2.79    2.54
   3 -13 -10   -0.27    2.57
  -3  13  10    1.03    2.21
   3 -13  -9   -2.47    2.44
  -3  13   9   -1.50    2.38
   3 -13  -7   -5.60    2.13
  -3  13   7   -3.23    1.84
   3 -13  -6   -0.36    1.73
  -3  13   6   -0.92    1.63
   3 -13  -5   -1.68    1.57
  -3  13   5   -2.94    1.56
   3 -13  -4    0.58    1.38
  -3  13   4    2.34    1.43
   3 -13  -3   -0.75    1.24
  -3  13   3    1.42    1.33
   3 -13  -2    1.44    1.18
  -3  13   2    1.04    1.01
  -3  13   2   -1.24    1.73
   3 -13  -1   13.11    1.95
  -3  13   1   12.28    1.52
  -3  13   1   10.42    1.55
   3 -13   0   11.62    1.28
  -3  13   0   15.57    2.07
  -3  13   0   13.38    1.46
   3 -13   1   -1.04    1.52
   3 -13   1   -0.56    1.16
  -3  13  -1    0.63    1.32
  -3  13  -1    1.84    1.21
   3 -13   2   -1.88    1.45
   3 -13   2    0.35    0.82
  -3  13  -2    1.53    1.35
  -3  13  -2    0.94    1.01
   3 -13   3    1.65    1.64
   3 -13   3    4.20    0.90
  -3  13  -3    1.74    1.49
  -3  13  -3    1.56    0.91
   3 -13   4    0.01    2.04
   3 -13   4    3.98    0.90
  -3  13  -4    2.57    1.72
  -3  13  -4    3.22    0.82
   3 -13   5    1.33    1.87
  -3  13  -5    7.75    1.98
  -3  13  -5    5.70    0.82
   3 -13   6    3.24    2.01
  -3  13  -6    8.20    1.77
  -3  13  -6    2.94    0.69
  -3  13  -7   -0.15    0.61
  -3  13  -7    0.69    0.88
   3 -13   8   -0.32    2.15
  -3  13  -8    0.06    0.66
  -3  13  -8    1.19    1.03
   3 -13   9    1.87    2.32
  -3  13  -9    0.45    0.67
  -3  13  -9    1.49    0.97
   3 -13  10    1.84    2.38
  -3  13 -10   -0.04    0.73
  -3  13 -10    0.39    1.09
  -3  13 -11    0.86    0.76
  -3  13 -11   -1.06    1.21
   3 -13  12    1.92    2.72
  -3  13 -12    1.43    0.82
  -3  13 -12    0.53    1.26
   3 -13  13   -0.15    2.78
  -3  13 -13    0.33    0.71
  -3  13 -13    1.91    1.39
   3 -11 -14   -1.21    3.13
  -3  11  14    3.00    3.27
  -3  11  13   -4.19    3.23
   3 -11 -12    2.85    2.73
  -3  11  12   -2.39    2.65
  -3  11  11   -1.30    2.45
   3 -11 -10    0.86    2.32
  -3  11  10   -0.25    2.09
   3 -11  -9   -4.58    2.27
  -3  11   9   -1.55    2.34
   3 -11  -8   -3.01    2.11
  -3  11   8   -3.59    2.18
   3 -11  -7   -4.50    1.87
  -3  11   7   -1.89    1.64
  -3  11   6   -1.97    1.65
  -3  11   5    1.18    1.39
   3 -11  -4   -0.08    1.22
  -3  11   4    0.86    1.29
   3 -11  -3    1.05    1.18
  -3  11   3    0.81    1.31
   3 -11  -2    5.02    1.22
  -3  11   2    3.61    1.31
   3 -11  -1    0.42    1.00
  -3  11   1   -1.04    1.10
   3 -11   0    2.73    1.18
  -3  11   0    4.41    1.36
  -3  11   0    1.06    1.38
   3 -11   1    5.69    1.61
   3 -11   1    4.16    0.94
  -3  11  -1    6.22    1.35
  -3  11  -1    3.88    0.92
   3 -11   2    2.97    1.57
   3 -11   2    6.89    0.92
  -3  11  -2    4.88    1.56
  -3  11  -2    6.48    1.09
   3 -11   3   -0.69    1.64
   3 -11   3    2.02    0.80
  -3  11  -3   -0.41    1.35
  -3  11  -3    1.61    0.80
   3 -11   4   -2.40    1.76
  -3  11  -4   -0.97    1.46
  -3  11  -4    0.17    0.82
   3 -11   5   -0.26    1.51
  -3  11  -5   -0.71    1.49
  -3  11  -5    1.00    0.96
  -3  11  -6   -0.29    1.37
  -3  11  -6    0.48    0.79
  -3  11  -6    2.44    0.92
   3 -11   7    6.06    1.93
  -3  11  -7    1.27    0.75
  -3  11  -7   -0.41    1.19
   3 -11   8    3.17    1.89
  -3  11  -8    0.03    0.79
  -3  11  -8    0.09    0.94
   3 -11   9    0.44    2.09
  -3  11  -9    1.64    1.01
  -3  11  -9    2.08    1.12
   3 -11  10   -0.07    2.18
  -3  11 -10    0.51    0.96
  -3  11 -10    1.76    1.24
   3 -11  11    0.91    2.31
  -3  11 -11    0.19    0.96
  -3  11 -11    0.91    1.44
   3 -11  12   -1.83    2.44
  -3  11 -12    0.71    1.00
  -3  11 -12    1.31    1.16
   3 -11  13    2.68    2.61
  -3  11 -13    1.93    1.07
  -3  11 -13   -1.18    1.80
   3  -9 -14   -1.87    3.05
  -3   9  14   -5.26    3.48
   3  -9 -13    1.74    2.95
  -3   9  13    5.72    3.12
   3  -9 -12    0.43    2.62
  -3   9  12    1.95    2.64
   3  -9 -11    0.63    2.59
  -3   9  11    7.75    2.53
   3  -9 -10   -4.65    2.26
  -3   9  10   -0.98    2.14
   3  -9  -9   -5.34    2.08
  -3   9   9    1.72    2.22
   3  -9  -8    6.32    2.12
  -3   9   8    6.73    1.95
   3  -9  -7    2.72    1.74
  -3   9   7    2.70    1.63
   3  -9  -6   21.97    2.36
  -3   9   6   22.22    3.08
   3  -9  -5   14.12    1.85
  -3   9   5   16.87    1.92
   3  -9  -4    3.23    1.34
  -3   9   4    8.95    1.47
   3  -9  -3   43.97    2.82
  -3   9   3   68.63    3.31
   3  -9  -2  103.57    5.02
  -3   9   2  102.76    5.43
   3  -9  -1  138.11    6.43
  -3   9   1  147.22    8.50
   3  -9   0  163.79    7.62
  -3   9   0  187.43    9.84
  -3   9   0  188.19    8.33
   3  -9   1  129.97    7.66
  -3   9  -1  144.05    8.69
   3  -9   2  111.29    6.19
  -3   9  -2   94.41    5.94
  -3   9  -2  129.30    5.44
   3  -9   3   17.19    2.28
   3  -9   3   20.11    1.36
  -3   9  -3   15.00    1.86
   3  -9   4   13.69    2.02
  -3   9  -4   20.72    2.83
  -3   9  -4   22.75    1.35
  -3   9  -5   32.20    2.49
  -3   9  -5   23.65    1.55
   3  -9   6    6.47    2.13
  -3   9  -6   13.49    1.47
  -3   9  -6   10.83    1.29
   3  -9   7   -4.79    1.75
  -3   9  -7   -0.71    1.16
   3  -9   8    4.43    1.84
  -3   9  -8    3.56    1.06
  -3   9  -8    0.43    1.19
   3  -9   9    0.23    1.75
  -3   9  -9    0.76    1.18
  -3   9  -9    0.39    0.87
   3  -9  10    5.76    1.87
  -3   9 -10    0.61    1.12
  -3   9 -10   -0.70    1.42
   3  -9  11    0.64    2.00
  -3   9 -11    0.68    1.20
  -3   9 -11   -1.03    1.65
   3  -9  12    3.20    2.15
  -3   9 -12    0.16    1.25
  -3   9 -12    2.15    1.97
   3  -9  13    4.02    2.25
  -3   9 -13    0.34    1.35
  -3   9 -13   -2.04    2.25
   3  -9  14    2.12    2.49
  -3   9 -14    0.86    1.03
  -3   9 -14    6.38    2.56
   3  -7 -15   -1.25    2.73
   3  -7 -14   -1.69    2.69
   3  -7 -13    4.74    3.54
  -3   7  13    0.08    2.97
   3  -7 -12   -1.05    2.39
  -3   7  12   -0.39    2.51
   3  -7 -11   -0.23    2.28
  -3   7  11    4.61    2.33
   3  -7 -10    2.86    2.02
  -3   7  10   -1.24    2.28
   3  -7  -9   -0.39    1.82
  -3   7   9   -0.72    2.02
   3  -7  -8    0.03    1.62
  -3   7   8   -0.26    1.52
   3  -7  -7   -0.15    1.45
  -3   7   7    1.66    1.42
   3  -7  -6    1.40    1.33
  -3   7   6    1.44    1.37
   3  -7  -5   -0.30    1.15
  -3   7   5    0.55    1.22
   3  -7  -4    0.13    1.05
  -3   7   4   -0.54    1.17
   3  -7  -3   -1.38    1.01
  -3   7   3    2.82    1.14
   3  -7  -2    8.35    1.22
  -3   7   2    5.97    1.29
   3  -7  -1   20.85    1.53
  -3   7   1   21.65    1.63
   3  -7   0   41.30    2.03
  -3   7   0   40.72    2.04
   3  -7   1    8.18    1.54
  -3   7  -1    8.89    1.72
  -3   7  -1   11.74    1.51
   3  -7   2   12.12    1.45
   3  -7   2   15.96    1.34
  -3   7  -2   10.59    1.53
  -3   7  -2   10.67    0.99
   3  -7   3    0.81    1.28
   3  -7   3   -1.39    0.89
  -3   7  -3   -0.19    1.05
  -3   7  -3    0.65    0.88
   3  -7   4    0.41    1.12
  -3   7  -4   -0.60    1.12
  -3   7  -4    0.14    0.89
   3  -7   5   -1.39    1.27
  -3   7  -5   -0.93    1.03
  -3   7  -5    0.44    1.01
   3  -7   6    1.97    1.34
  -3   7  -6    0.60    0.78
  -3   7  -6   -1.41    1.04
   3  -7   7    0.52    1.36
  -3   7  -7    0.07    1.18
  -3   7  -7    0.85    1.09
   3  -7   8    1.21    1.98
  -3   7  -8    0.47    0.84
   3  -7   9    1.90    1.52
  -3   7  -9   -0.10    1.39
   3  -7  10   -0.82    1.62
  -3   7 -10    1.07    1.28
   3  -7  11   -0.22    1.75
  -3   7 -11    1.00    1.40
  -3   7 -12    0.50    1.08
  -3   7 -13   -0.31    1.50
   3  -7  14    2.65    2.11
  -3   7 -14   -0.28    1.66
   3  -5 -15    0.05    2.45
   3  -5 -14    4.29    2.68
   3  -5 -13    0.97    2.46
  -3   5  13    2.45    2.90
   3  -5 -12    5.65    2.31
  -3   5  12   -2.22    2.53
   3  -5 -11    2.03    2.10
  -3   5  11    1.21    2.24
   3  -5 -10    1.27    1.94
  -3   5  10    3.46    2.29
   3  -5  -9   -0.18    1.71
  -3   5   9    3.13    1.97
   3  -5  -8    0.20    1.54
  -3   5   8   -2.47    1.50
   3  -5  -7    2.09    1.40
  -3   5   7    3.72    1.43
   3  -5  -6    3.63    1.38
  -3   5   6    2.60    1.38
   3  -5  -5    2.91    1.12
  -3   5   5    1.42    1.26
   3  -5  -4    2.24    1.04
  -3   5   4    1.48    1.18
   3  -5  -3    6.12    1.15
  -3   5   3    5.61    1.28
   3  -5  -2   12.71    1.33
  -3   5   2    9.83    1.35
   3  -5  -1   45.23    1.78
  -3   5   1   18.74    1.83
   3  -5   0   96.65    3.91
  -3   5   0   84.94    3.73
   3  -5   1    9.70    1.23
  -3   5  -1   15.52    1.50
  -3   5  -1   11.40    1.15
   3  -5   2   11.57    1.25
   3  -5   2   12.96    1.39
  -3   5  -2   10.03    0.97
   3  -5   3    5.60    1.37
  -3   5  -3    5.19    1.11
  -3   5  -3    8.66    1.13
  -3   5  -4    2.35    1.03
  -3   5  -4    2.98    1.14
   3  -5   5    0.77    1.15
  -3   5  -5    1.04    0.85
  -3   5  -5    0.54    1.15
   3  -5   6    3.17    1.70
  -3   5  -6    3.29    1.34
   3  -5   7    0.99    1.17
  -3   5  -7   -0.15    0.89
   3  -5   8    0.01    1.31
  -3   5  -8    1.53    0.99
   3  -5   9    0.78    1.35
  -3   5  -9   -1.23    1.61
   3  -5  10    4.31    1.52
  -3   5 -10    1.20    1.15
   3  -5  11    1.83    1.60
  -3   5 -11    0.54    1.19
   3  -5  12    0.78    1.68
  -3   5 -12   -0.27    1.26
   3  -5  13   -1.13    1.82
  -3   5 -13   -1.06    1.83
   3  -5  14    3.29    2.63
  -3   5 -14    1.64    1.47
   3  -3 -15    1.23    2.37
  -3   3  14    6.39    3.36
   3  -3 -13    6.52    2.72
  -3   3  13   10.77    3.21
   3  -3 -12    3.80    2.24
  -3   3  11    4.59    2.34
   3  -3 -10    6.48    2.13
  -3   3  10    8.22    2.23
   3  -3  -9    9.04    1.99
  -3   3   9    9.86    2.34
   3  -3  -8    8.65    1.80
  -3   3   8    8.32    2.37
   3  -3  -7    9.80    1.57
  -3   3   7    8.18    1.62
   3  -3  -6   89.65    4.86
  -3   3   6   87.04    5.21
   3  -3  -5   24.96    1.80
  -3   3   5   26.12    2.09
   3  -3  -4   14.81    1.32
  -3   3   4    9.20    1.41
   3  -3  -3    7.42    1.17
  -3   3   3    8.49    1.22
   3  -3  -2    3.24    1.00
  -3   3   2    0.84    1.00
   3  -3  -1   31.03    1.68
  -3   3   1   23.08    1.60
   3  -3   0 1259.88  172.32
  -3   3   0 1373.31  182.72
   3  -3   1    4.28    1.00
  -3   3  -1    5.96    1.14
  -3   3  -1    6.12    0.96
   3  -3   2    6.37    0.85
   3  -3   2    4.17    0.96
  -3   3  -2    6.82    0.94
  -3   3  -2    5.69    1.24
   3  -3   3    7.35    1.15
  -3   3  -3    6.94    1.26
  -3   3  -3    6.04    1.06
   3  -3   4   17.10    1.71
  -3   3  -4   14.00    1.15
   3  -3   5   38.46    2.93
  -3   3  -5   46.58    3.10
   3  -3   6  101.17    5.80
  -3   3  -6  123.91    6.05
   3  -3   7    8.35    1.74
  -3   3  -7    8.11    1.31
   3  -3   8   10.61    1.97
  -3   3  -8   10.85    2.01
   3  -3   9    2.00    1.28
  -3   3  -9    3.05    1.51
   3  -3  10    2.84    1.39
  -3   3 -10    2.13    1.39
   3  -3  11    2.92    1.94
  -3   3 -11    0.43    1.41
   3  -3  12    1.36    2.09
  -3   3 -12    2.54    2.08
   3  -3  13    4.38    1.78
  -3   3 -13    4.49    2.33
   3  -3  14    3.47    1.73
  -3   3 -14    0.06    1.63
   3  -1 -14    1.35    2.16
  -3   1  14   -1.09    2.72
   3  -1 -13    4.17    2.29
  -3   1  13    3.79    2.75
   3  -1 -12   -1.04    2.00
  -3   1  12    4.22    2.27
   3  -1 -11    1.51    1.92
  -3   1  11    3.81    2.13
   3  -1 -10    2.56    2.40
  -3   1  10    2.01    1.87
   3  -1  -9    1.33    2.05
  -3   1   9   -1.89    2.47
   3  -1  -8   -1.37    1.90
  -3   1   8   -2.48    1.93
   3  -1  -7    1.13    1.20
  -3   1   7    1.72    1.29
   3  -1  -6    1.78    1.17
  -3   1   6    1.09    1.70
   3  -1  -5    0.09    1.31
  -3   1   5    0.50    1.08
   3  -1  -4    6.17    1.47
  -3   1   4    6.45    1.18
   3  -1  -3   14.32    1.35
  -3   1   3   12.69    1.28
   3  -1  -2   14.42    1.20
  -3   1   2   16.64    1.30
   3  -1  -1   18.78    1.45
  -3   1   1   18.34    1.56
   3  -1   0   40.83    2.00
  -3   1   0   37.73    2.00
   3  -1   1   12.53    1.18
  -3   1  -1   15.37    1.15
   3  -1   2   13.60    0.81
  -3   1  -2   17.00    1.17
   3  -1   3    8.83    0.89
  -3   1  -3   11.13    1.08
   3  -1   4    6.96    1.12
   3  -1   5    2.10    0.78
  -3   1  -5   -0.13    1.13
   3  -1   6    1.16    1.26
  -3   1  -6    8.69    1.79
   3  -1   7    1.26    1.00
  -3   1  -7    1.85    1.64
   3  -1   8    1.51    1.50
  -3   1  -8    2.20    1.84
   3  -1   9    0.57    1.58
  -3   1  -9   -3.31    2.17
   3  -1  10    2.34    1.77
  -3   1 -10    0.45    1.49
   3  -1  11    3.85    1.45
  -3   1 -11    1.29    1.63
   3  -1  12   -1.59    1.31
  -3   1 -12    2.36    2.25
   3  -1  13    5.74    2.04
  -3   1 -13    0.45    1.88
   3  -1  14    0.93    1.99
  -3   1 -14   -1.02    1.81
   3   1 -15    2.42    2.05
  -3  -1  15   -0.28    2.91
   3   1 -14    5.84    2.98
  -3  -1  14    5.12    2.94
   3   1 -12   -0.07    1.86
  -3  -1  12    3.04    2.16
   3   1 -11   -1.17    1.69
  -3  -1  11    0.59    1.90
   3   1 -10    2.18    1.65
  -3  -1  10    1.64    2.39
   3   1  -9    1.90    1.45
  -3  -1   9    0.68    2.40
   3   1  -8    2.21    1.29
  -3  -1   8    1.01    1.81
   3   1  -7    1.03    1.13
  -3  -1   7    3.07    1.63
   3   1  -6    1.86    1.11
  -3  -1   6    6.08    1.66
   3   1  -5    4.72    1.34
  -3  -1   5    2.72    1.04
   3   1  -4    4.85    1.40
  -3  -1   4    7.48    1.07
   3   1  -3   11.92    1.04
  -3  -1   3   13.80    1.50
   3   1  -2   19.26    1.29
  -3  -1   2   12.70    1.13
   3   1  -1   17.34    1.43
  -3  -1   1   17.69    1.43
   3   1   0   36.08    1.69
  -3  -1   0   30.36    1.66
   3   1   1   17.65    1.47
  -3  -1  -1   15.14    1.42
  -3  -1  -2   11.56    0.63
   3   1   3    8.27    0.64
  -3  -1  -3    6.99    0.51
   3   1   4    6.71    0.77
  -3  -1  -4    8.57    1.38
   3   1   5    1.11    0.81
  -3  -1  -5    1.39    1.26
   3   1   6    3.35    1.12
  -3  -1  -6    3.45    1.43
   3   1   7    2.41    1.13
  -3  -1  -7    1.79    1.37
   3   1   8    2.25    0.94
  -3  -1  -8    2.59    1.50
   3   1   9    1.67    1.01
  -3  -1  -9    2.05    2.45
   3   1  10    1.26    1.14
  -3  -1 -10    3.60    1.67
   3   1  11    1.12    1.61
  -3  -1 -11   -0.41    1.72
   3   1  12    3.75    1.84
  -3  -1 -12    3.89    2.70
   3   1  13    0.78    1.45
  -3  -1 -13    2.25    2.06
   3   1  14    3.57    1.87
  -3  -1 -14    2.04    2.17
   3   3 -15   -2.50    2.56
   3   3 -14    3.56    1.97
   3   3 -13    6.77    2.17
   3   3 -13    7.44    2.19
  -3  -3  13    7.84    2.66
   3   3 -11    9.85    2.60
  -3  -3  11    7.30    2.82
   3   3 -10    9.57    2.40
  -3  -3  10    7.96    1.90
   3   3  -9   12.45    2.32
  -3  -3   9   12.22    2.06
   3   3  -8   12.50    2.09
  -3  -3   8   11.95    1.62
   3   3  -7    9.01    1.31
  -3  -3   7   10.19    1.37
   3   3  -6  107.53    6.32
  -3  -3   6  107.31    6.54
   3   3  -5   38.69    2.60
  -3  -3   5   42.53    2.59
   3   3  -4   17.70    1.07
  -3  -3   4   18.30    1.56
   3   3  -3   10.82    1.27
  -3  -3   3   11.08    1.20
   3   3  -2    2.29    0.87
  -3  -3   2    4.41    1.19
   3   3  -1   39.30    1.73
  -3  -3   1   22.01    1.34
   3   3   0 1145.48  136.38
  -3  -3   0 1166.67  137.54
  -3  -3  -3    6.62    1.22
   3   3   4   17.56    0.77
  -3  -3  -4   20.34    1.92
   3   3   5   38.00    1.88
  -3  -3  -5   50.44    3.04
   3   3   6  103.58    4.47
  -3  -3  -6  117.34    8.69
   3   3   7    4.38    1.02
  -3  -3  -7    3.19    1.64
   3   3   8   10.90    1.38
  -3  -3  -8   12.10    2.41
   3   3   9    2.79    1.24
  -3  -3  -9    3.34    2.11
   3   3  10    3.73    1.41
  -3  -3 -10    2.93    1.95
   3   3  11    2.93    1.47
  -3  -3 -11    0.07    2.03
   3   3  12    2.48    1.56
  -3  -3 -12    1.98    2.19
   3   3  13    2.19    1.70
  -3  -3 -13   -0.33    2.28
   3   3  14   -0.23    1.28
  -3  -3 -14    0.88    2.26
  -3  -5  15    4.20    3.25
   3   5 -14    1.88    1.72
  -3  -5  14    0.69    2.55
   3   5 -13   -1.75    2.36
   3   5 -12    4.87    2.28
  -3  -5  12    1.74    1.81
   3   5 -11   -1.35    2.01
  -3  -5  11   -0.15    1.58
   3   5 -10    3.22    1.87
  -3  -5  10    1.01    1.95
   3   5  -9    0.33    1.60
  -3  -5   9   -1.15    1.61
   3   5  -8   -0.35    1.44
  -3  -5   8    3.16    1.67
   3   5  -7   -0.40    1.23
  -3  -5   7   -0.30    1.21
   3   5  -6    4.92    0.94
  -3  -5   6    3.54    1.27
   3   5  -5    1.49    0.90
  -3  -5   5    2.82    1.01
   3   5  -4    4.77    0.95
  -3  -5   4    4.58    0.92
   3   5  -3   13.34    1.13
  -3  -5   3    9.38    0.92
   3   5  -2   13.83    0.96
  -3  -5   2   13.61    0.85
   3   5  -1   23.60    1.23
  -3  -5   1   18.65    1.26
  -3  -5   0  102.22    3.95
  -3  -5  -2    7.74    0.86
  -3  -5  -3    4.63    1.12
  -3  -5  -4    1.81    1.35
  -3  -5  -5    0.21    1.41
  -3  -5  -6    1.59    1.58
  -3  -5  -6    1.15    1.61
  -3  -5  -7   -1.12    1.62
  -3  -5  -8    0.06    1.95
   3   5   9    0.50    0.95
  -3  -5  -9    0.75    2.11
   3   5  10    0.60    1.06
  -3  -5 -10   -0.25    1.95
   3   5  11    0.99    1.20
  -3  -5 -11   -1.85    2.15
   3   5  12    1.43    1.31
  -3  -5 -12   -0.52    2.30
   3   5  13    0.87    1.41
  -3  -5 -13    1.07    2.40
   3   5  14    1.21    1.51
  -3  -5 -14    1.16    2.51
  -3  -7  14    3.22    3.14
  -3  -7  14    2.26    1.34
  -3  -7  13   -0.25    2.54
   3   7 -12   -0.65    1.91
  -3  -7  12    1.31    2.28
  -3  -7  12   -1.97    2.27
   3   7 -11    0.79    1.84
  -3  -7  11    1.73    1.87
   3   7 -10    0.82    1.61
  -3  -7  10    0.49    1.20
   3   7  -9    1.60    1.43
  -3  -7   9    0.69    1.07
   3   7  -8    2.72    0.96
  -3  -7   8    1.18    1.28
   3   7  -7    1.45    1.05
  -3  -7   7    1.00    1.01
   3   7  -6    2.39    1.13
  -3  -7   6   -0.37    1.13
   3   7  -5   -0.49    0.87
  -3  -7   5   -0.54    0.77
   3   7  -4    1.99    0.76
  -3  -7   4   -0.73    0.66
   3   7  -3    2.08    0.55
  -3  -7   3    0.91    0.68
  -3  -7   2   11.90    0.85
  -3  -7   1    5.95    0.91
  -3  -7   0   34.15    1.22
  -3  -7  -1    2.25    0.59
  -3  -7  -1    2.21    1.03
  -3  -7  -2    9.20    0.72
  -3  -7  -2    9.40    1.26
  -3  -7  -3   -0.60    0.94
  -3  -7  -4   -2.69    1.45
   3   7   5    0.34    1.02
  -3  -7  -5   -0.79    1.46
   3   7   6    0.43    1.07
  -3  -7  -6   -1.06    1.63
   3   7   7    0.66    1.12
  -3  -7  -7   -0.62    1.96
   3   7   8    1.97    1.27
  -3  -7  -8   -0.39    2.21
   3   7   9    0.55    1.29
  -3  -7  -9   -0.16    1.90
  -3  -7 -10    4.08    2.29
   3   7  11    2.40    1.07
  -3  -7 -11    1.27    2.44
   3   7  12    0.15    1.15
  -3  -7 -12    5.47    2.48
   3   7  13    1.12    1.24
  -3  -7 -13    2.60    2.65
   3   7  14    2.82    1.35
  -3  -7 -14    5.71    2.86
   3   9 -14    0.46    1.47
  -3  -9  14   -0.08    3.71
   3   9 -13    0.90    1.72
  -3  -9  13   -1.39    3.21
   3   9 -12    2.34    1.70
  -3  -9  12    7.27    2.94
  -3  -9  12   -2.75    2.02
   3   9 -11    0.62    1.61
  -3  -9  11    1.68    2.69
  -3  -9  11    2.71    1.80
   3   9 -10   -0.26    1.38
  -3  -9  10    0.74    2.19
  -3  -9  10    3.63    1.54
   3   9  -9   -0.92    1.11
  -3  -9   9   -0.98    1.20
   3   9  -8    2.61    1.12
  -3  -9   8    4.90    1.22
   3   9  -7   11.75    1.23
  -3  -9   7    2.47    1.46
   3   9  -6   32.14    1.77
  -3  -9   6   32.62    1.83
   3   9  -5   20.36    0.99
  -3  -9   5   29.49    1.38
  -3  -9   4    8.04    1.46
  -3  -9   4   12.00    0.84
  -3  -9   2   96.34    5.19
  -3  -9   2   88.56    2.85
  -3  -9   1  126.13    6.68
  -3  -9   0  160.46    6.48
  -3  -9   0  184.10    8.32
  -3  -9  -1   75.37    2.36
  -3  -9  -1   69.34    3.20
   3   9   2   95.68    3.20
  -3  -9  -2   96.24    3.63
  -3  -9  -2   86.39    5.31
   3   9   3   22.03    1.10
  -3  -9  -3   10.61    1.54
   3   9   4    4.80    1.15
  -3  -9  -4    7.18    1.73
   3   9   5    8.21    1.42
  -3  -9  -5   14.48    2.20
   3   9   6   11.66    2.73
  -3  -9  -6   22.67    3.03
   3   9   7    0.24    1.23
  -3  -9  -7    2.46    2.21
   3   9   8    5.61    1.50
  -3  -9  -8    5.38    2.32
   3   9   9   -0.44    1.35
  -3  -9  -9   -0.16    2.10
   3   9  10    1.79    1.51
  -3  -9 -10   -0.07    2.38
  -3  -9 -11   -2.37    3.59
   3   9  12   -0.14    0.97
  -3  -9 -12   -3.87    2.69
   3   9  13    0.30    1.03
  -3  -9 -13    0.30    3.77
   3   9  14    1.67    1.14
  -3  -9 -14    8.76    3.04
   3  11 -14    0.42    0.52
  -3 -11  14    0.16    5.35
   3  11 -13    1.12    1.27
  -3 -11  13    0.91    3.86
   3  11 -12   -1.80    1.30
  -3 -11  12    5.77    3.63
   3  11 -11   -0.53    1.29
  -3 -11  11    3.47    3.06
   3  11 -10    0.11    1.13
  -3 -11  10    1.69    2.65
  -3 -11  10   -0.42    1.17
   3  11  -9    0.42    0.84
  -3 -11   9    6.15    2.46
  -3 -11   9   -1.32    1.23
   3  11  -8   -0.03    0.75
  -3 -11   8   -4.66    2.23
  -3 -11   8    0.20    0.97
   3  11  -7    0.55    0.46
  -3 -11   7    2.78    1.93
  -3 -11   7   -0.02    0.68
   3  11  -6    0.99    0.31
  -3 -11   6    4.72    1.75
  -3 -11   4    1.67    1.32
  -3 -11   4    0.39    0.45
  -3 -11   3    3.09    1.31
  -3 -11   3    1.78    0.51
  -3 -11   2    3.84    1.34
  -3 -11   2    7.11    0.87
  -3 -11   2    7.06    0.73
  -3 -11   1    0.42    0.97
  -3 -11   1   -0.53    0.87
  -3 -11   0    0.68    0.67
  -3 -11   0    0.23    0.94
   3  11   1    1.66    0.97
  -3 -11  -1    1.79    0.49
  -3 -11  -1    0.39    0.83
   3  11   2    2.62    0.92
  -3 -11  -2    4.40    0.82
  -3 -11  -2    6.04    1.49
   3  11   3    0.58    0.89
   3  11   3    2.84    0.95
  -3 -11  -3    0.31    1.12
   3  11   4    0.28    0.61
   3  11   4    0.79    0.99
  -3 -11  -4   -0.15    1.17
   3  11   5   -2.67    1.73
  -3 -11  -5    1.72    1.96
   3  11   6   -0.86    1.93
  -3 -11  -6   -3.31    3.12
   3  11   7    0.48    2.01
  -3 -11  -7   -3.14    2.39
   3  11   8   -1.61    2.24
  -3 -11  -8   -2.37    2.22
   3  11   9    0.45    1.39
  -3 -11  -9   -0.29    2.30
   3  11  10   -0.82    1.53
  -3 -11 -10    0.54    2.51
  -3 -11 -11   -2.45    2.88
  -3 -11 -12   -2.25    2.96
   3  11  13    1.39    1.07
  -3 -11 -13   -1.56    3.04
  -3 -13  14    4.03    4.66
   3  13 -13    2.30    1.38
  -3 -13  13    5.76    4.26
   3  13 -12    0.62    0.57
  -3 -13  12    1.74    3.85
  -3 -13  10    5.17    3.69
  -3 -13   9   10.86    3.93
  -3 -13   8   16.38    3.93
  -3 -13   7   15.27    3.39
  -3 -13   6   28.28    3.63
  -3 -13   5    9.75    2.12
  -3 -13   4    0.15    1.51
  -3 -13   4    1.22    0.45
  -3 -13   3    1.05    1.38
  -3 -13   3    0.69    0.75
  -3 -13   3    1.10    0.66
  -3 -13   2    0.06    1.08
  -3 -13   2   -0.33    0.80
  -3 -13   2   -0.52    0.55
  -3 -13   1   11.44    1.21
  -3 -13   1    5.32    1.23
   3  13   0   11.97    1.23
  -3 -13   0   14.49    1.53
  -3 -13   0   16.26    1.23
  -3 -13  -1    0.41    0.53
  -3 -13  -1   -0.40    0.95
   3  13   2    0.35    1.00
  -3 -13  -2   -0.54    0.88
  -3 -13  -2    5.57    1.58
   3  13   3    0.54    0.88
   3  13   3    1.57    0.96
  -3 -13  -3   -0.79    1.23
   3  13   4    0.60    0.85
   3  13   4    3.81    1.71
  -3 -13  -4   -1.26    1.52
   3  13   5    3.31    0.66
   3  13   6    4.01    0.78
  -3 -13  -6   -0.75    2.53
   3  13   7    1.00    0.68
   3  13   7    1.59    2.24
  -3 -13  -7   -0.41    2.25
   3  13   8    0.38    2.36
  -3 -13  -8   -2.33    2.43
   3  13   9    3.56    1.54
  -3 -13  -9    0.03    2.70
   3  13  10   -1.24    1.62
  -3 -13 -10   -1.61    2.79
   3  13  11    1.83    1.70
  -3 -13 -11   -2.46    2.94
  -3 -13 -12    1.58    3.14
  -3 -13 -13    3.09    3.38
  -3 -15  13    6.93    5.02
  -3 -15  12    8.23    4.84
  -3 -15  11    9.25    4.63
  -3 -15  10    0.28    3.45
  -3 -15   9    6.85    3.72
  -3 -15   8   14.91    3.95
  -3 -15   7    9.91    3.04
  -3 -15   6   12.13    2.75
  -3 -15   5   11.06    2.28
  -3 -15   4    4.70    1.75
  -3 -15   3    8.89    1.67
  -3 -15   3   11.22    1.17
  -3 -15   3    9.47    0.66
  -3 -15   2   25.97    2.14
  -3 -15   2   25.43    2.16
  -3 -15   1   32.97    2.08
  -3 -15   1   23.87    1.95
   3  15   0   35.69    2.20
  -3 -15   0   38.08    2.54
   3  15   1   28.81    1.79
  -3 -15  -1   29.91    2.07
  -3 -15  -1   24.42    2.45
   3  15   2   25.60    2.16
  -3 -15  -2   22.55    1.73
  -3 -15  -2   22.87    2.49
   3  15   3    1.51    1.02
  -3 -15  -3    2.04    1.69
   3  15   4    3.41    0.91
   3  15   4    4.90    1.88
  -3 -15  -4    0.55    1.79
   3  15   5   10.28    0.97
   3  15   5   10.37    2.42
  -3 -15  -5    6.15    1.87
   3  15   6    9.86    2.42
  -3 -15  -6   -1.89    3.28
   3  15   7    2.42    2.27
  -3 -15  -7   -0.61    2.40
   3  15   8    5.20    1.28
   3  15   8    1.80    2.51
  -3 -15  -8    4.44    2.78
   3  15   9   -2.54    2.50
  -3 -15  -9   -2.92    3.86
   3  15  10    2.15    0.93
   3  15  10    3.72    1.63
  -3 -15 -10   -3.02    2.97
   3  15  11    4.79    1.83
  -3 -15 -11   -1.92    3.25
  -3 -15 -12    0.48    3.22
  -3 -17  13   -0.01    4.61
  -3 -17  12    2.97    4.67
  -3 -17  11    6.66    4.68
  -3 -17  10    2.29    3.81
  -3 -17   9    2.59    3.55
  -3 -17   8    8.97    3.64
  -3 -17   7   10.15    3.26
  -3 -17   6    6.30    2.22
  -3 -17   5    5.35    1.89
  -3 -17   4   10.03    1.93
  -3 -17   3   15.42    1.93
  -3 -17   3   10.02    1.07
  -3 -17   2   27.11    2.30
  -3 -17   2   22.54    1.97
  -3 -17   1   35.55    2.58
  -3 -17   1   35.37    2.79
   3  17   0   33.56    2.33
  -3 -17   0   34.67    2.04
  -3 -17   0   38.06    2.52
   3  17   1   36.72    2.04
  -3 -17  -1   27.59    1.71
  -3 -17  -1   26.67    2.56
   3  17   2   26.39    2.42
  -3 -17  -2   24.60    1.60
  -3 -17  -2   24.71    2.53
   3  17   3    5.52    1.40
   3  17   3    4.38    1.15
  -3 -17  -3    3.24    1.75
   3  17   4    5.55    1.09
   3  17   4    5.23    2.03
  -3 -17  -4   -1.73    2.49
   3  17   5    7.83    1.08
   3  17   5    7.82    2.36
  -3 -17  -5    2.07    2.05
   3  17   6    0.35    2.25
  -3 -17  -6    0.99    1.84
   3  17   7    4.51    0.96
   3  17   7    1.94    2.49
  -3 -17  -7    2.32    2.02
   3  17   8    2.49    0.88
   3  17   8    4.08    2.48
  -3 -17  -8   -0.63    2.83
   3  17   9   -0.22    0.98
   3  17   9    2.66    2.43
  -3 -17  -9    3.37    2.81
   3  17  10    2.17    1.69
  -3 -17 -10    0.57    3.12
   3  17  11    1.51    1.80
  -3 -17 -11    2.97    3.36
  -3 -17 -12    3.09    3.58
  -3 -19  12   -7.71    4.86
  -3 -19  11   -3.60    4.13
  -3 -19  10    0.51    3.46
  -3 -19   9    2.00    3.17
  -3 -19   8    1.25    2.71
  -3 -19   7    5.54    2.58
  -3 -19   6    2.86    2.13
  -3 -19   5   -2.39    1.86
  -3 -19   4    3.72    2.41
  -3 -19   3    4.47    1.67
  -3 -19   3    2.49    1.02
  -3 -19   3    2.32    0.81
  -3 -19   2    1.67    1.61
  -3 -19   2    3.74    1.21
   3  19  -1    1.63    1.24
  -3 -19   1    2.08    1.36
  -3 -19   1    2.64    1.60
   3  19   0    1.95    1.22
  -3 -19   0   -0.55    1.95
  -3 -19   0    2.57    1.38
   3  19   1    1.35    1.13
  -3 -19  -1   -0.70    1.29
  -3 -19  -1    1.61    1.48
   3  19   2    1.12    1.48
  -3 -19  -2    1.18    1.69
   3  19   3    2.02    1.03
   3  19   3   -0.86    1.06
  -3 -19  -3   -1.14    1.76
   3  19   4    2.58    1.30
   3  19   4   -0.24    2.01
  -3 -19  -4    3.24    1.96
   3  19   5    2.03    1.08
   3  19   5    3.30    2.27
  -3 -19  -5    0.97    2.08
   3  19   6    2.03    1.00
   3  19   6   -0.54    2.37
  -3 -19  -6   -0.18    2.10
   3  19   7    1.35    0.96
   3  19   7    3.99    2.51
  -3 -19  -7    3.16    2.16
   3  19   8   -0.67    0.95
   3  19   8    3.48    2.52
  -3 -19  -8   -2.60    2.15
   3  19   9    0.16    0.84
   3  19   9    0.69    1.60
  -3 -19  -9   -0.11    2.17
   3  19  10   -0.19    0.94
   3  19  10    1.12    1.68
  -3 -19 -10    2.27    3.12
   3  19  11    0.66    1.81
  -3 -19 -11    3.94    3.40
  -3 -21  10    2.66    3.89
  -3 -21   9    4.73    3.54
  -3 -21   8   -0.64    2.77
  -3 -21   7    1.73    2.53
  -3 -21   6    3.84    2.40
  -3 -21   5    2.83    2.12
  -3 -21   4    1.44    1.97
  -3 -21   3    7.85    2.08
  -3 -21   3    5.87    0.99
  -3 -21   3    5.84    0.84
  -3 -21   2    7.15    2.10
  -3 -21   2   12.63    1.57
   3  21  -1    6.98    1.67
  -3 -21   1   14.22    1.92
   3  21   0   18.74    2.19
  -3 -21   0   25.61    2.59
  -3 -21   0   32.45    2.54
   3  21   1   14.89    1.67
  -3 -21  -1   10.26    1.52
  -3 -21  -1   15.09    2.30
   3  21   2    9.97    1.53
  -3 -21  -2    9.60    2.39
   3  21   3    8.05    1.83
   3  21   3    3.56    1.29
  -3 -21  -3    7.40    2.40
   3  21   4    6.14    1.59
   3  21   4    1.00    1.38
  -3 -21  -4    1.85    2.35
   3  21   5    9.28    1.65
   3  21   5    8.11    2.75
  -3 -21  -5    0.87    2.67
   3  21   6    5.66    2.97
  -3 -21  -6    7.36    2.69
   3  21   7    5.31    2.90
  -3 -21  -7    3.13    2.54
   3  21   8    0.84    1.03
   3  21   8   -0.36    1.73
  -3 -21  -8    5.09    2.42
   3  21   9    0.48    0.88
   3  21   9    1.91    1.77
  -3 -21  -9    1.65    2.43
   3  21  10    0.77    0.74
   3  21  10    2.54    1.84
  -3 -21 -10   -0.85    2.53
  -3 -23  10    1.05    3.85
  -3 -23   9    0.29    3.26
  -3 -23   8    3.84    3.12
  -3 -23   7    2.70    2.69
  -3 -23   6   -0.12    2.38
  -3 -23   5    7.08    3.46
  -3 -23   4    4.02    2.29
  -3 -23   3    6.32    2.14
  -3 -23   3    5.57    1.20
  -3 -23   3    4.13    0.95
  -3 -23   2    5.87    2.06
  -3 -23   2    6.91    1.43
  -3 -23   1    7.17    3.14
  -3 -23   1    5.46    1.96
   3  23   0   10.70    1.92
  -3 -23   0   11.66    2.78
  -3 -23   0   17.73    2.20
   3  23   1    8.23    2.21
  -3 -23  -1    7.91    2.11
  -3 -23  -1   11.41    2.92
   3  23   2    5.04    1.49
  -3 -23  -2    7.12    3.11
   3  23   3    7.41    2.02
  -3 -23  -3    6.18    2.62
   3  23   4    3.94    1.36
   3  23   4    0.86    1.47
  -3 -23  -4    5.06    2.59
   3  23   5    1.47    1.60
  -3 -23  -5    4.71    2.61
   3  23   6    2.05    1.78
  -3 -23  -6    4.47    2.70
   3  23   7   -2.22    1.80
  -3 -23  -7   -0.09    2.64
   3  23   8    1.57    1.11
   3  23   8    0.54    1.88
  -3 -23  -8    3.55    2.63
   3  23   9    0.37    0.93
   3  23   9   -2.20    1.88
  -3 -23  -9   -2.91    2.63
   3  23  10    2.20    1.97
  -3 -23 -10   -0.31    2.83
  -3 -25   9    2.55    3.64
  -3 -25   8    5.29    3.40
  -3 -25   6    1.32    2.61
  -3 -25   4    3.98    2.36
  -3 -25   3    2.77    2.03
  -3 -25   3    1.45    1.12
  -3 -25   3   -0.49    0.90
  -3 -25   2    3.00    2.50
  -3 -25   2    2.10    1.37
  -3 -25   1    1.82    1.98
  -3 -25   1    1.94    1.78
   3  25   0   -2.25    1.40
  -3 -25   0   -0.56    1.66
  -3 -25   0    2.36    2.16
   3  25   1    1.04    1.51
  -3 -25  -1    2.73    1.61
  -3 -25  -1    3.70    1.91
   3  25   2    2.29    1.44
   3  25   3    1.91    1.39
  -3 -25  -3    0.45    2.45
   3  25   4    0.41    1.78
  -3 -25  -4    1.73    2.60
   3  25   5    0.84    1.35
   3  25   5    3.54    1.65
  -3 -25  -5    3.72    2.82
   3  25   6    0.30    1.78
  -3 -25  -6    2.42    2.84
   3  25   7    0.18    1.86
   3  25   8   -1.20    1.98
  -3 -25  -8    0.29    2.85
   3  25   9    1.15    1.17
   3  25   9    1.60    2.06
  -3 -25  -9    0.87    2.95
  -3 -27   8    8.40    3.76
  -3 -27   6    2.39    2.75
  -3 -27   5   -0.42    3.35
  -3 -27   4    2.83    2.49
  -3 -27   3    4.92    2.84
  -3 -27   3    0.93    0.92
  -3 -27   3    2.25    0.94
  -3 -27   2    4.13    2.58
  -3 -27   2    0.96    1.46
  -3 -27   1    1.97    2.12
  -3 -27   1    1.21    1.86
   3  27   0   -1.24    1.54
  -3 -27   0    0.39    2.50
  -3 -27   0    3.35    2.15
   3  27   1    0.31    1.58
  -3 -27  -1    0.97    1.92
   3  27   2   -1.89    2.14
  -3 -27  -2   -5.40    3.17
   3  27   3    2.69    1.48
  -3 -27  -3   -2.94    3.49
   3  27   4    2.34    1.46
  -3 -27  -4    2.45    2.90
   3  27   5    2.31    1.88
  -3 -27  -5    0.79    3.02
  -3 -27  -6    3.35    3.23
  -3 -27  -7    1.02    3.09
  -3 -27  -8   -7.26    4.87
  -3 -29   7    5.51    3.34
  -3 -29   6    0.39    2.78
  -3 -29   5    5.12    3.82
  -3 -29   4    8.87    5.15
  -3 -29   3    2.33    3.03
  -3 -29   3    1.97    0.96
  -3 -29   3    1.54    0.97
  -3 -29   2    2.11    3.57
  -3 -29   2    4.55    1.58
  -3 -29   1    4.52    2.37
  -3 -29   1    2.40    1.51
  -3 -29   0    3.74    2.30
  -3 -29   0    3.15    2.53
   3  29   1    1.49    1.64
  -3 -29  -1    3.02    2.74
   3  29   2    3.56    1.74
  -3 -29  -2    2.18    2.40
   3  29   3    0.44    2.14
  -3 -29  -3    2.71    2.63
   3  29   4   -0.83    2.03
  -3 -29  -4    4.91    3.01
   3  29   5    0.12    1.41
  -3 -29  -5    0.63    3.12
  -3 -29  -6    2.93    3.49
  -3 -29  -7   -3.04    3.56
  -3 -31   5    7.69    4.16
  -3 -31   4    2.18    3.10
  -3 -31   3    5.80    4.14
  -3 -31   2    4.16    2.59
  -3 -31   2    0.40    1.51
  -3 -31   1    4.04    2.44
  -3 -31   1   -0.30    1.95
  -3 -31   0    0.18    1.74
  -3 -31  -1   -1.73    2.88
   3  31   2    1.74    1.66
  -3 -31  -2    3.08    2.38
   3  31   3    2.65    1.79
  -3 -31  -3    6.03    3.75
   3  31   4    1.03    2.14
  -3 -31  -4   -1.00    3.94
  -3 -31  -5    3.75    3.37
  -3 -33   1    0.02    2.00
  -3 -33   1    0.89    1.96
  -3 -33   0    3.32    2.56
  -3 -33  -1    1.00    2.14
   4 -32  -3    1.07    2.70
  -4  32   3    0.65    2.80
   4 -32  -2   -4.12    3.11
  -4  32   2    5.14    2.47
   4 -32  -1    0.99    3.09
  -4  32   1    1.98    1.38
  -4  32   1    2.27    1.92
  -4  32   1    1.20    2.00
   4 -32   0    1.03    2.91
  -4  32   0    4.00    1.68
  -4  32   0    3.35    1.83
   4 -32   1    4.91    2.38
  -4  32  -1    4.53    2.31
   4 -32   2   -0.86    1.66
   4 -30  -6    2.96    3.31
  -4  30   6    0.32    3.51
   4 -30  -5    4.59    3.19
  -4  30   5    1.85    3.32
   4 -30  -4    0.33    2.81
  -4  30   4    2.67    3.93
   4 -30  -3   -3.45    3.40
  -4  30   3    5.80    3.58
   4 -30  -2   -0.06    2.19
  -4  30   2    5.12    2.48
   4 -30  -1   -1.09    1.96
  -4  30   1   -1.35    1.35
  -4  30   1    0.09    2.79
   4 -30   0   -0.41    1.88
   4 -30   0    1.59    1.89
  -4  30   0   -1.49    2.16
  -4  30   0    1.91    2.19
   4 -30   1    1.59    2.18
  -4  30  -1    0.06    1.85
  -4  30  -1    1.49    1.52
   4 -30   2    0.08    1.82
  -4  30  -2    4.17    2.45
  -4  30  -2    2.52    0.94
  -4  30  -2    2.28    1.01
  -4  30  -3   -2.30    2.60
  -4  30  -3    0.84    0.70
  -4  30  -4   -2.19    3.07
   4 -30   5    2.48    3.01
   4 -28  -8    2.85    3.46
  -4  28   8    0.27    0.19
  -4  28   8   -3.06    3.52
   4 -28  -7    4.86    4.64
  -4  28   7    0.92    3.53
   4 -28  -6    0.62    3.15
  -4  28   6    2.80    3.27
   4 -28  -5   -0.23    2.90
  -4  28   5    1.27    2.97
   4 -28  -4    5.95    3.82
  -4  28   4    1.41    3.42
   4 -28  -3   -1.58    2.49
  -4  28   3    1.82    0.94
  -4  28   3   -0.38    3.01
   4 -28  -2   -0.13    2.27
  -4  28   2    1.72    2.69
   4 -28  -1   -1.60    2.67
  -4  28   1    7.95    3.32
   4 -28   0    0.41    2.62
  -4  28   0    2.22    1.75
  -4  28   0    6.09    2.90
   4 -28   1    6.10    2.25
  -4  28  -1    4.02    2.06
  -4  28  -1    2.16    2.33
   4 -28   2    3.16    1.87
  -4  28  -2    0.83    2.47
  -4  28  -2    2.06    1.51
   4 -28   3    1.16    1.21
  -4  28  -3    0.39    2.67
  -4  28  -3    2.13    0.83
   4 -28   4    0.50    0.99
  -4  28  -4    0.68    2.86
  -4  28  -4    0.58    0.61
  -4  28  -4    0.45    0.67
   4 -28   5    0.89    2.59
  -4  28  -5    4.47    3.04
   4 -28   6    1.76    2.75
  -4  28  -6    6.12    3.14
   4 -28   7    2.40    2.96
   4 -26  -9   -1.23    3.40
  -4  26   9    0.11    0.09
  -4  26   9    1.79    3.34
   4 -26  -8    2.71    3.17
   4 -26  -8   -5.14    3.26
  -4  26   8    0.13    0.21
  -4  26   8    3.24    3.21
   4 -26  -7    6.52    3.29
  -4  26   7    1.06    3.38
   4 -26  -6    2.34    3.85
  -4  26   6    0.62    0.44
  -4  26   6    2.60    3.41
   4 -26  -5   -6.01    2.84
  -4  26   5    0.88    3.37
   4 -26  -4   -3.29    2.61
  -4  26   4   -1.06    4.15
   4 -26  -3   -4.44    2.34
  -4  26   3    3.70    2.79
   4 -26  -2   -3.68    2.91
  -4  26   2    2.87    1.24
  -4  26   2    2.94    2.63
   4 -26  -1    0.69    2.43
  -4  26   1    0.38    1.94
   4 -26   0   -0.09    2.39
  -4  26   0   -2.45    1.65
  -4  26   0    5.08    1.74
   4 -26   1    0.27    1.54
  -4  26  -1   -3.45    1.84
  -4  26  -1    2.60    1.95
   4 -26   2    2.35    1.83
  -4  26  -2    2.96    2.08
  -4  26  -2    2.74    1.57
   4 -26   3   -0.35    1.23
  -4  26  -3    1.99    2.45
  -4  26  -3    0.71    1.17
   4 -26   4    0.64    3.03
   4 -26   4    0.57    0.91
  -4  26  -4   -2.16    2.69
  -4  26  -4   -0.09    0.74
   4 -26   5    3.34    3.34
  -4  26  -5    4.43    3.17
   4 -26   6    1.24    2.25
  -4  26  -6    1.04    2.90
   4 -26   7   -0.48    2.51
  -4  26  -7    1.23    2.58
   4 -26   8    1.80    2.99
   4 -24  -9    3.93    3.55
  -4  24   9    6.13    3.41
   4 -24  -8   -1.92    2.99
  -4  24   8   -0.12    0.21
  -4  24   8    1.53    3.00
   4 -24  -7   -4.51    3.02
  -4  24   7   -1.43    3.47
   4 -24  -6   -7.51    3.02
   4 -24  -6   -6.82    3.02
  -4  24   6    2.97    4.77
   4 -24  -5   -2.33    3.36
  -4  24   5    0.36    3.04
   4 -24  -4   -2.58    2.47
  -4  24   4   -2.71    2.49
   4 -24  -3   -4.51    3.04
  -4  24   3    1.58    0.95
  -4  24   3    4.08    2.21
   4 -24  -2   -1.85    2.12
  -4  24   2    4.80    1.25
  -4  24   2    5.93    3.03
   4 -24  -1    3.22    1.77
  -4  24   1    2.06    2.01
   4 -24   0    0.46    1.81
  -4  24   0    8.36    1.81
  -4  24   0    4.53    1.94
   4 -24   1    0.02    1.79
  -4  24  -1    4.11    1.88
  -4  24  -1    3.83    1.58
   4 -24   2   -2.02    1.74
  -4  24  -2   -5.16    2.07
  -4  24  -2    2.49    1.74
   4 -24   3   -1.70    2.76
   4 -24   3   -0.16    1.26
  -4  24  -3   -6.20    2.42
  -4  24  -3    1.91    1.29
   4 -24   4   -2.69    2.72
   4 -24   4    0.28    0.89
  -4  24  -4    3.37    2.52
  -4  24  -4   -0.43    0.84
   4 -24   5    1.70    2.86
  -4  24  -5    2.91    2.80
  -4  24  -5    0.30    0.48
   4 -24   6   -2.14    3.21
  -4  24  -6   -2.65    2.84
   4 -24   7   -0.82    3.21
  -4  24  -7   -0.06    2.71
   4 -24   8    5.59    3.77
   4 -24   9   -1.80    3.62
   4 -22 -10   -3.22    3.23
  -4  22  10    2.55    2.95
   4 -22  -9    1.51    3.02
  -4  22   9    0.67    2.91
   4 -22  -8    0.09    2.81
  -4  22   8    2.44    3.18
   4 -22  -7   -2.27    2.73
  -4  22   7   -2.59    3.22
   4 -22  -6   -6.13    2.65
  -4  22   6    0.00    3.09
   4 -22  -5    0.25    2.35
  -4  22   5   -4.72    2.43
   4 -22  -4   -0.82    2.12
  -4  22   4    0.92    0.81
  -4  22   4   -0.22    2.19
   4 -22  -3   -0.55    1.98
  -4  22   3    1.18    2.00
   4 -22  -2   -1.67    1.83
  -4  22   2   -0.82    1.13
  -4  22   2    0.88    1.92
   4 -22  -1   -0.62    1.68
  -4  22   1   -0.82    1.39
  -4  22   1   -2.06    2.46
   4 -22   0    2.48    1.52
  -4  22   0   -1.18    1.63
   4 -22   1   -0.06    1.85
  -4  22  -1   -1.42    1.71
  -4  22  -1    1.33    1.39
   4 -22   2   -1.13    1.60
  -4  22  -2    1.14    1.88
  -4  22  -2    1.45    1.63
   4 -22   3    0.06    2.53
   4 -22   3   -2.08    1.27
  -4  22  -3   -2.41    2.05
  -4  22  -3    0.88    1.39
   4 -22   4   -4.58    2.49
   4 -22   4    0.14    0.77
  -4  22  -4    0.52    2.46
   4 -22   5    3.90    2.67
  -4  22  -5   -0.17    2.65
  -4  22  -5    1.43    0.88
   4 -22   6   -3.74    2.91
  -4  22  -6   -0.60    2.67
   4 -22   7    3.68    2.98
  -4  22  -7   -2.33    2.50
   4 -22   8   -0.06    3.14
   4 -22   9    3.25    3.95
   4 -22  10    5.58    4.33
   4 -20 -12    0.68    3.57
   4 -20 -11    1.02    3.41
  -4  20  11    2.30    3.01
   4 -20 -10   -1.96    3.06
  -4  20  10    0.75    2.74
   4 -20  -9   -0.81    2.82
  -4  20   9   -0.88    3.02
   4 -20  -8    1.57    2.64
  -4  20   8    1.27    4.00
   4 -20  -7    2.54    2.38
  -4  20   7   -3.62    2.80
   4 -20  -6    0.43    2.28
  -4  20   6    1.79    0.52
  -4  20   6   -0.63    2.36
   4 -20  -5   -5.99    2.22
   4 -20  -5   -6.43    2.22
  -4  20   5    2.64    2.27
   4 -20  -4   -0.75    2.69
  -4  20   4    1.78    0.79
  -4  20   4    3.41    2.10
   4 -20  -3   -1.48    1.81
  -4  20   3    1.85    1.02
  -4  20   3    0.73    2.65
   4 -20  -2    2.43    1.81
  -4  20   2    3.76    1.90
   4 -20  -1    4.26    1.81
  -4  20   1    8.98    1.56
  -4  20   1    6.78    2.61
   4 -20   0    2.02    1.44
  -4  20   0    8.69    1.73
  -4  20   0    5.47    1.71
   4 -20   1    1.13    1.82
  -4  20  -1    1.66    1.81
  -4  20  -1    4.06    1.83
   4 -20   2    2.15    1.55
  -4  20  -2    0.92    1.80
  -4  20  -2    0.95    1.55
   4 -20   3    1.39    2.18
   4 -20   3   -0.13    1.23
  -4  20  -3    0.01    1.90
  -4  20  -3    1.31    1.55
   4 -20   4    0.86    2.33
   4 -20   4    2.19    0.85
  -4  20  -4    1.90    2.35
  -4  20  -4    0.87    1.09
   4 -20   5   -1.37    2.48
  -4  20  -5    1.47    2.46
  -4  20  -5    1.69    0.90
   4 -20   6   -0.38    2.71
  -4  20  -6    2.80    2.61
  -4  20  -6    1.48    0.64
   4 -20   7    3.04    2.88
  -4  20  -7    0.22    2.39
   4 -20   8   -2.95    3.53
   4 -20   9    4.90    3.80
   4 -20  10    4.47    5.34
   4 -20  11    6.74    4.37
   4 -18 -12    0.08    3.35
  -4  18  12   -0.41    2.90
   4 -18 -11   -1.08    3.16
  -4  18  11   -0.51    2.75
   4 -18 -10    1.20    2.97
  -4  18  10    2.05    2.62
   4 -18  -9   -2.00    2.61
  -4  18   9    0.71    2.84
   4 -18  -8    1.74    2.50
  -4  18   8    0.74    2.78
   4 -18  -7    5.28    2.47
  -4  18   7    3.68    2.42
   4 -18  -6    1.38    2.16
  -4  18   6    3.39    2.20
   4 -18  -5    0.02    1.92
  -4  18   5    3.00    2.05
   4 -18  -4    2.28    1.80
  -4  18   4    1.91    0.78
  -4  18   4    2.07    1.96
   4 -18  -3    7.88    2.09
  -4  18   3   10.60    1.19
  -4  18   3    8.82    2.19
   4 -18  -2   17.90    2.39
  -4  18   2   17.98    1.76
  -4  18   2   14.98    2.47
   4 -18  -1   33.08    2.88
  -4  18   1   33.64    3.08
  -4  18   1   32.28    3.01
   4 -18   0   35.30    2.66
  -4  18   0   27.90    2.78
  -4  18   0   35.85    2.86
   4 -18   1   16.98    2.56
  -4  18  -1   23.54    2.63
   4 -18   2   17.22    2.68
   4 -18   2   13.77    1.93
  -4  18  -2    8.55    2.24
  -4  18  -2    8.98    1.46
   4 -18   3    0.85    2.14
  -4  18  -3    2.06    1.90
  -4  18  -3    3.71    1.33
   4 -18   4    5.25    2.40
   4 -18   4    5.46    1.01
  -4  18  -4    7.15    2.48
  -4  18  -4    7.55    1.27
   4 -18   5    2.76    3.65
  -4  18  -5    8.58    2.69
  -4  18  -5    7.58    1.41
   4 -18   6    1.29    2.81
  -4  18  -6    5.40    2.75
  -4  18  -6    6.04    1.20
   4 -18   7    4.36    3.17
  -4  18  -7    1.66    2.34
  -4  18  -7    3.28    0.83
   4 -18   8    3.24    3.14
  -4  18  -8    1.05    0.70
   4 -18   9   -0.76    3.28
   4 -18  10    2.65    3.61
   4 -18  11    4.22    3.89
   4 -18  12   -0.30    3.78
   4 -16 -13   -1.54    3.48
   4 -16 -12    1.40    3.21
  -4  16  12    1.01    2.91
  -4  16  11   -2.48    2.77
   4 -16 -10   -4.28    2.85
  -4  16  10   -1.30    2.94
   4 -16  -9   -0.32    2.49
  -4  16   9   -0.97    2.64
   4 -16  -8   -4.19    2.53
  -4  16   8   -5.75    2.34
   4 -16  -7   -1.25    2.13
  -4  16   7   -2.98    2.09
   4 -16  -6   -0.50    1.86
  -4  16   6    1.50    1.93
   4 -16  -5   -1.30    1.67
  -4  16   5    1.06    1.82
   4 -16  -4    1.10    1.61
  -4  16   4    3.09    1.73
   4 -16  -3    4.09    1.60
  -4  16   3    3.98    0.99
  -4  16   3    1.66    1.74
   4 -16  -2    6.16    1.65
  -4  16   2    7.24    1.30
  -4  16   2    5.52    2.35
   4 -16  -1   16.55    1.93
  -4  16   1   16.55    1.96
  -4  16   1   17.62    2.06
   4 -16   0   20.76    1.88
  -4  16   0   16.26    2.07
   4 -16   1    5.60    1.29
  -4  16  -1    5.96    1.76
   4 -16   2    3.92    2.08
   4 -16   2    6.82    1.57
  -4  16  -2    6.18    1.86
  -4  16  -2    4.91    1.51
   4 -16   3   -0.10    1.84
   4 -16   3    1.96    1.10
  -4  16  -3    4.46    1.74
  -4  16  -3    3.16    1.21
   4 -16   4    3.66    2.02
   4 -16   4    2.62    0.99
  -4  16  -4    2.15    1.84
  -4  16  -4    4.50    1.12
   4 -16   5   -2.80    2.28
  -4  16  -5    6.97    2.24
  -4  16  -5    5.81    1.06
   4 -16   6    0.27    2.53
  -4  16  -6   -3.76    2.19
  -4  16  -6    1.49    0.95
   4 -16   7   -1.68    2.83
  -4  16  -7   -1.97    1.98
  -4  16  -7    1.29    0.68
  -4  16  -7    1.42    0.61
   4 -16   8    3.66    2.88
  -4  16  -8    0.12    0.69
  -4  16  -8    0.76    0.64
   4 -16   9    5.32    2.34
  -4  16  -9    0.27    0.74
  -4  16  -9    0.05    0.91
   4 -16  10    0.68    2.49
  -4  16 -10    0.61    0.63
  -4  16 -10    0.55    1.43
   4 -16  11    5.02    2.59
  -4  16 -11    0.02    1.31
   4 -16  12    2.07    2.79
   4 -14 -13   -3.00    3.21
  -4  14  13    1.01    3.07
  -4  14  12    1.21    2.83
   4 -14 -11   -1.71    2.89
  -4  14  11   -1.68    2.64
   4 -14 -10    0.92    2.51
  -4  14  10   -0.29    2.62
   4 -14  -9    0.31    2.29
  -4  14   9   -0.82    2.48
   4 -14  -8   -4.29    2.27
  -4  14   8   -1.40    2.09
   4 -14  -7    0.19    1.95
  -4  14   7    2.52    1.90
   4 -14  -6    5.62    1.86
  -4  14   6    2.21    1.96
   4 -14  -5    5.05    1.67
  -4  14   5    3.69    1.81
   4 -14  -4    5.30    1.53
  -4  14   4    2.25    1.70
   4 -14  -3   17.62    2.06
  -4  14   3   19.29    2.31
   4 -14  -2   30.42    2.40
  -4  14   2   28.94    1.93
  -4  14   2   20.31    2.45
   4 -14  -1   32.55    2.47
  -4  14   1   32.77    2.51
  -4  14   1   34.56    2.65
   4 -14   0   36.55    3.12
  -4  14   0   41.24    3.38
  -4  14   0   34.24    2.56
   4 -14   1   36.76    2.76
  -4  14  -1   25.40    2.81
  -4  14  -1   37.60    2.17
   4 -14   2   25.64    2.97
   4 -14   2   30.01    2.42
  -4  14  -2   22.81    2.79
  -4  14  -2   28.77    2.22
   4 -14   3    9.72    1.92
   4 -14   3    8.31    1.29
  -4  14  -3    4.53    1.88
  -4  14  -3    8.65    1.29
   4 -14   4    5.69    2.76
   4 -14   4    7.32    1.07
  -4  14  -4    6.81    1.94
  -4  14  -4   10.42    1.31
   4 -14   5    2.76    2.63
  -4  14  -5   10.19    2.25
  -4  14  -5   10.14    1.07
   4 -14   6    0.52    2.56
  -4  14  -6    4.77    2.14
  -4  14  -6    4.80    0.88
   4 -14   7   -0.63    2.55
  -4  14  -7    1.76    1.74
  -4  14  -7    0.51    0.85
   4 -14   8    1.19    2.15
  -4  14  -8    1.96    0.76
  -4  14  -8    1.16    1.25
   4 -14   9    0.50    2.92
  -4  14  -9    0.69    0.71
  -4  14  -9   -1.14    1.57
   4 -14  10    3.00    3.08
  -4  14 -10    0.28    0.72
  -4  14 -10    2.61    1.37
   4 -14  11    5.03    2.44
  -4  14 -11    0.79    0.75
  -4  14 -11    1.39    1.31
   4 -14  12    3.22    2.54
  -4  14 -12    1.27    0.72
  -4  14 -12    2.38    1.42
   4 -14  13   -2.00    3.60
   4 -12 -14    0.10    3.13
   4 -12 -13    4.02    3.26
  -4  12  13    3.61    3.23
  -4  12  12    1.47    2.81
   4 -12 -11    2.28    2.91
  -4  12  11    5.41    2.71
   4 -12 -10    3.03    2.43
  -4  12  10   -0.63    2.62
   4 -12  -9    8.59    2.56
  -4  12   9    4.63    2.34
   4 -12  -8   16.47    2.88
  -4  12   8   15.95    2.74
   4 -12  -7   21.56    2.86
  -4  12   7   22.44    2.93
   4 -12  -6   22.38    2.79
  -4  12   6   27.75    3.00
   4 -12  -5   19.10    2.33
  -4  12   5   24.85    2.57
   4 -12  -4   25.74    2.30
  -4  12   4   23.07    2.54
   4 -12  -3   79.86    4.73
  -4  12   3   82.20    5.11
   4 -12  -2  117.56    6.48
  -4  12   2  119.57    6.95
   4 -12  -1  156.09    7.98
  -4  12   1  161.34    8.76
  -4  12   1  165.19    8.87
   4 -12   0  176.52    8.92
  -4  12   0  168.34   10.38
  -4  12   0  177.83   10.95
  -4  12  -1  174.82   11.91
  -4  12  -1  153.69    9.11
   4 -12   2  110.19    7.43
   4 -12   2  131.12    6.94
  -4  12  -2  101.60    7.21
  -4  12  -2  113.62    6.10
   4 -12   3   40.69    3.25
   4 -12   3   36.42    1.79
  -4  12  -3   32.92    3.20
  -4  12  -3   45.90    2.25
   4 -12   4   44.68    3.88
   4 -12   4   40.95    2.32
  -4  12  -4   45.56    3.59
  -4  12  -4   53.05    2.52
   4 -12   5   34.97    4.89
  -4  12  -5   54.55    4.36
  -4  12  -5   50.93    2.42
   4 -12   6   34.16    4.34
  -4  12  -6   28.69    3.47
  -4  12  -6   36.22    2.42
   4 -12   7   20.91    2.81
  -4  12  -7   16.70    2.16
  -4  12  -7   17.20    1.60
  -4  12  -7   20.33    2.05
   4 -12   8    9.97    2.19
  -4  12  -8    4.15    1.10
  -4  12  -8    3.67    1.37
   4 -12   9    2.23    2.06
  -4  12  -9    1.91    0.96
  -4  12  -9    2.28    1.30
   4 -12  10    3.31    2.20
  -4  12 -10    0.25    1.13
  -4  12 -10    3.22    1.40
   4 -12  11    2.10    2.29
  -4  12 -11    0.61    0.99
  -4  12 -11    2.21    1.36
   4 -12  12    6.45    2.41
  -4  12 -12    0.07    1.79
  -4  12 -12    2.88    1.54
   4 -12  13    2.57    2.46
  -4  12 -13    1.99    1.00
  -4  12 -13    2.68    1.74
   4 -10 -14   -1.71    2.92
  -4  10  14    1.95    3.21
   4 -10 -13    3.91    2.98
  -4  10  13    2.77    3.14
   4 -10 -12   -1.44    2.79
  -4  10  12   -5.39    3.84
   4 -10 -11   -0.50    2.67
  -4  10  11   -7.70    2.97
   4 -10 -10    1.47    2.17
  -4  10  10   -1.59    2.42
   4 -10  -9   -2.66    2.13
  -4  10   9   -2.11    1.99
   4 -10  -8    1.17    1.87
  -4  10   8   -3.11    1.83
   4 -10  -7    0.43    1.76
  -4  10   7   12.43    1.95
   4 -10  -6    2.46    1.41
  -4  10   6    0.03    1.52
   4 -10  -5    1.53    1.28
  -4  10   5    0.05    1.44
   4 -10  -4    0.46    1.19
  -4  10   4    0.56    1.31
   4 -10  -3    1.57    1.24
  -4  10   3    3.77    1.40
   4 -10  -2    4.12    1.22
  -4  10   2    3.76    1.31
   4 -10  -1    1.46    1.33
  -4  10   1    1.08    1.09
   4 -10   0    1.78    1.43
  -4  10   0    3.73    1.36
  -4  10   0    1.61    1.03
   4 -10   1    8.33    1.63
  -4  10  -1    7.62    1.86
  -4  10  -1    4.45    1.46
   4 -10   2    4.99    1.56
   4 -10   2    8.48    1.04
  -4  10  -2    6.78    1.62
  -4  10  -2    8.74    1.43
   4 -10   3    3.38    1.34
   4 -10   3    1.45    0.76
  -4  10  -3   -0.46    1.39
  -4  10  -3    1.73    0.76
   4 -10   4   -1.38    1.41
   4 -10   4   -0.11    0.95
  -4  10  -4    0.39    1.31
  -4  10  -4    1.82    0.98
   4 -10   5    1.73    1.76
  -4  10  -5   -0.11    1.51
  -4  10  -5    2.26    1.09
   4 -10   6   -0.30    1.51
  -4  10  -6    0.84    1.40
  -4  10  -6    1.91    1.08
   4 -10   7    0.67    1.59
  -4  10  -7   -1.08    1.14
  -4  10  -7   -0.71    1.11
  -4  10  -7    1.04    1.17
   4 -10   8    0.34    1.73
  -4  10  -8    0.84    1.09
  -4  10  -8    0.58    1.15
  -4  10  -9    1.92    1.36
   4 -10  10    1.59    1.92
  -4  10 -10    1.23    1.35
  -4  10 -10    0.80    1.46
   4 -10  11    0.22    2.02
  -4  10 -11    1.47    1.19
  -4  10 -11    0.66    1.23
   4 -10  12   -0.03    2.08
  -4  10 -12    0.48    1.26
  -4  10 -12    1.87    1.32
   4 -10  13    0.98    2.16
  -4  10 -13   -0.12    1.25
  -4  10 -13    0.53    1.51
   4  -8 -14    2.03    2.88
  -4   8  14    2.83    3.33
   4  -8 -13   -0.39    2.67
  -4   8  13    3.16    2.94
   4  -8 -12    0.69    2.45
  -4   8  12   -3.34    3.51
   4  -8 -11    2.07    2.40
  -4   8  11    2.74    2.81
   4  -8 -10   -1.46    2.04
  -4   8  10    3.02    2.36
   4  -8  -9   -1.44    1.97
  -4   8   9   -4.52    2.60
   4  -8  -8    0.16    1.71
  -4   8   8   -2.84    1.75
   4  -8  -7   -1.62    1.51
  -4   8   7   -3.63    1.63
   4  -8  -6   -1.99    1.34
  -4   8   6    2.16    1.44
   4  -8  -5    0.11    1.17
  -4   8   5   -0.69    1.37
   4  -8  -4    3.48    1.21
  -4   8   4    3.34    1.33
   4  -8  -3    3.60    1.21
  -4   8   3    3.44    1.29
   4  -8  -2    2.01    1.47
  -4   8   2    0.52    1.13
   4  -8  -1   14.42    1.47
  -4   8   1   17.48    1.55
   4  -8   0   19.44    1.55
  -4   8   0   22.63    2.15
  -4   8   0   22.50    2.18
   4  -8   1    3.96    1.56
  -4   8  -1    3.48    1.45
  -4   8  -1    3.14    1.48
   4  -8   2    2.15    1.33
   4  -8   2    5.97    1.01
  -4   8  -2    3.60    1.88
  -4   8  -2    6.44    1.29
   4  -8   3    0.98    1.19
   4  -8   3    2.70    0.82
  -4   8  -3    0.40    1.27
  -4   8  -3    2.14    1.11
   4  -8   4    2.14    1.49
  -4   8  -4    2.90    1.25
   4  -8   5    1.56    1.58
  -4   8  -5    0.17    1.29
  -4   8  -5    0.60    1.14
   4  -8   6    2.07    1.84
  -4   8  -6    0.94    1.57
  -4   8  -6    0.68    1.15
  -4   8  -7   -0.39    0.91
  -4   8  -7   -3.56    1.32
   4  -8   8   -0.93    1.60
  -4   8  -8    0.43    1.26
  -4   8  -8    1.47    1.30
   4  -8   9    3.27    2.19
  -4   8  -9    0.46    0.95
  -4   8  -9   -0.96    1.01
   4  -8  10    1.07    2.33
  -4   8 -10   -0.42    1.17
  -4   8 -10   -2.38    1.23
   4  -8  11    5.70    2.49
  -4   8 -11    0.64    1.05
  -4   8 -11   -0.54    1.94
   4  -8  12    1.10    2.59
  -4   8 -12    1.16    1.11
  -4   8 -12    1.15    2.28
   4  -8  13    1.79    2.62
  -4   8 -13   -0.37    1.14
  -4   8 -13    2.73    2.50
   4  -8  14    0.99    2.02
  -4   8 -14    0.43    1.56
  -4   8 -14   -0.24    2.79
   4  -6 -15    2.09    2.79
  -4   6  14    4.11    3.33
   4  -6 -13    4.33    2.71
  -4   6  13    4.27    3.09
   4  -6 -12   -0.62    2.33
  -4   6  12    6.37    3.49
   4  -6 -11    2.24    2.28
  -4   6  11    4.85    2.82
   4  -6 -10   -0.62    1.89
  -4   6  10    0.23    2.28
   4  -6  -9   -1.81    1.76
  -4   6   9    3.24    1.78
   4  -6  -8    4.54    1.74
  -4   6   8    5.65    1.88
   4  -6  -7   10.26    1.72
  -4   6   7    7.82    1.85
   4  -6  -6   21.12    2.24
  -4   6   6   32.45    2.58
   4  -6  -5   15.01    1.64
  -4   6   5   15.13    1.82
   4  -6  -4    5.05    1.23
  -4   6   4    5.23    1.40
   4  -6  -3   38.16    2.44
  -4   6   3   42.20    2.59
   4  -6  -2   61.77    3.06
  -4   6   2   64.64    3.41
   4  -6  -1  105.90    4.92
  -4   6   1  101.88    5.25
   4  -6   0  154.22    8.18
  -4   6   0  176.05    8.76
   4  -6   1   59.33    3.19
  -4   6  -1   69.34    3.69
   4  -6   2   52.60    2.91
  -4   6  -2   56.73    2.96
   4  -6   3    5.86    1.20
   4  -6   3    6.73    1.43
  -4   6  -3    9.15    1.34
  -4   6  -3    8.90    1.32
   4  -6   4   21.93    1.92
  -4   6  -4   18.43    1.59
  -4   6  -4   17.10    1.30
  -4   6  -5   20.31    2.44
  -4   6  -5   20.19    2.18
   4  -6   6   26.65    2.10
  -4   6  -6   23.55    1.17
  -4   6  -6   24.81    2.27
   4  -6   7    0.95    1.33
  -4   6  -7    1.63    1.43
  -4   6  -7    2.00    1.41
   4  -6   8    6.58    2.17
  -4   6  -8    9.51    1.28
  -4   6  -8    4.17    1.30
   4  -6   9    0.44    1.40
  -4   6  -9    1.00    1.23
   4  -6  10    0.30    1.52
  -4   6 -10    1.40    1.33
   4  -6  11   -0.02    1.62
  -4   6 -11    1.84    1.43
   4  -6  12    0.08    1.68
  -4   6 -12    2.06    1.29
   4  -6  13    3.86    2.46
  -4   6 -13    1.89    1.89
   4  -6  14   -0.75    2.44
  -4   6 -14    1.78    1.88
  -4   6 -14    1.77    2.40
   4  -4 -15    0.53    2.53
   4  -4 -14   -1.63    2.41
  -4   4  14    2.05    2.89
   4  -4 -13   -2.30    3.19
  -4   4  13    2.36    2.74
   4  -4 -12   -1.17    2.18
  -4   4  12    1.15    3.25
   4  -4 -11    4.15    2.14
  -4   4  11    0.95    2.64
   4  -4 -10   -1.29    1.80
  -4   4  10    0.55    2.21
   4  -4  -9   -1.11    1.61
  -4   4   9   -0.14    1.71
   4  -4  -8   -1.27    1.48
  -4   4   8   -0.96    2.17
   4  -4  -7    0.35    1.27
  -4   4   7   -0.17    1.36
   4  -4  -6    0.60    1.17
  -4   4   6   -0.30    1.86
   4  -4  -5   -1.19    1.43
  -4   4   5    0.55    1.16
   4  -4  -4    1.18    1.06
  -4   4   4    0.15    1.15
   4  -4  -3    0.85    1.03
  -4   4   3   -0.56    1.07
   4  -4  -2    3.08    1.02
  -4   4   2    2.94    1.18
   4  -4  -1    1.14    1.11
  -4   4   1   -0.89    1.10
   4  -4   0    1.44    1.77
  -4   4   0    1.99    1.20
   4  -4   1    2.96    1.16
  -4   4  -1    6.11    1.40
  -4   4  -1    6.13    1.57
   4  -4   2    2.83    0.97
  -4   4  -2    1.79    1.74
  -4   4  -2    2.50    0.89
   4  -4   3    1.36    0.82
  -4   4  -3    2.80    0.96
  -4   4  -3    1.54    1.21
   4  -4   4   -1.01    1.34
  -4   4  -4   -0.70    0.93
  -4   4  -4   -0.67    0.95
   4  -4   5   -0.46    1.20
  -4   4  -5   -0.18    0.80
  -4   4  -5    1.12    1.32
   4  -4   6    1.03    1.00
  -4   4  -6    2.10    1.45
  -4   4  -6   -1.57    1.00
   4  -4   7    1.43    1.46
  -4   4  -7    0.39    1.10
   4  -4   8    0.10    1.17
  -4   4  -8    1.71    1.16
   4  -4   9    0.38    1.19
  -4   4  -9    0.87    1.20
   4  -4  10    1.65    1.24
  -4   4 -10   -1.37    1.49
   4  -4  11    1.45    1.36
  -4   4 -11    0.86    1.64
   4  -4  12    1.44    1.42
  -4   4 -12    1.47    1.48
   4  -4  13   -1.89    1.52
  -4   4 -13    1.78    2.11
   4  -4  14   -2.16    1.58
  -4   4 -14    0.67    1.60
   4  -2 -15   -2.07    3.30
   4  -2 -14    2.76    2.42
  -4   2  14    1.93    2.90
   4  -2 -13    3.91    2.29
  -4   2  13   -1.30    2.67
   4  -2 -12    0.58    2.10
  -4   2  12    1.48    3.13
   4  -2 -11    0.99    2.72
  -4   2  11    3.81    2.50
   4  -2 -10   -1.39    2.41
  -4   2  10    4.00    2.19
   4  -2  -9    1.16    2.14
  -4   2   9    0.67    1.64
   4  -2  -8   -1.67    1.40
  -4   2   8   -0.91    1.50
   4  -2  -7    0.60    1.22
   4  -2  -7    1.46    1.22
  -4   2   7   -1.24    1.32
   4  -2  -6    8.02    1.77
  -4   2   6    3.70    1.44
   4  -2  -5    0.83    1.07
  -4   2   5    0.81    1.17
   4  -2  -4    2.28    1.11
  -4   2   4    2.56    1.12
   4  -2  -3    4.64    1.09
  -4   2   3    7.35    1.64
   4  -2  -2   13.30    1.45
  -4   2   2   15.17    1.58
   4  -2  -1   24.52    2.14
  -4   2   1   26.41    2.15
   4  -2   0   98.34    4.86
  -4   2   0  102.40    5.03
   4  -2   1   12.88    1.37
  -4   2  -1   24.74    1.95
   4  -2   2   10.33    1.32
  -4   2  -2    9.33    1.08
  -4   2  -2   10.39    1.26
   4  -2   3    6.09    1.00
  -4   2  -3    6.17    0.84
  -4   2  -3    8.38    1.70
   4  -2   4    1.40    1.09
  -4   2  -4    2.38    0.98
  -4   2  -4    1.57    1.08
   4  -2   5    0.21    1.03
  -4   2  -5    1.70    0.56
   4  -2   6    1.83    1.23
  -4   2  -6    2.97    1.27
   4  -2   7   -0.55    0.92
  -4   2  -7   -2.39    1.19
   4  -2   8   -1.97    1.30
  -4   2  -8   -0.05    1.31
   4  -2   9    0.89    1.38
  -4   2  -9    0.66    1.35
   4  -2  10    1.79    1.50
  -4   2 -10    0.81    1.72
   4  -2  11    2.29    1.59
  -4   2 -11   -0.43    1.83
   4  -2  12    0.43    1.63
  -4   2 -12    0.72    1.62
   4  -2  13   -0.24    1.76
  -4   2 -13   -3.26    2.43
   4  -2  14    1.53    1.38
  -4   2 -14    3.78    1.88
   4   0 -15    2.27    2.29
   4   0 -14    1.98    3.11
  -4   0  14    3.93    2.74
   4   0 -13    5.20    2.49
  -4   0  13   12.17    3.86
   4   0 -12    1.30    2.08
  -4   0  12    4.37    2.27
   4   0 -11    3.46    1.90
   4   0 -11    2.16    1.90
  -4   0  11    0.17    2.06
   4   0 -10    3.23    1.71
  -4   0  10    0.75    2.12
   4   0  -9    4.50    1.61
   4   0  -9    3.26    1.63
  -4   0   9    3.87    1.68
   4   0  -8    4.14    1.52
  -4   0   8    6.63    1.63
   4   0  -7    4.40    1.80
  -4   0   7    4.18    1.39
   4   0  -6   37.11    2.66
  -4   0   6   43.61    2.73
   4   0  -5   17.54    1.68
  -4   0   5   22.37    2.29
   4   0  -4   15.42    1.43
  -4   0   4   15.28    1.41
   4   0  -3    5.02    1.43
  -4   0   3    4.11    1.10
   4   0  -2   23.80    1.61
  -4   0   2   13.52    1.65
   4   0  -1   47.74    2.83
  -4   0   1   41.05    2.72
   4   0   0  360.48   21.73
   4   0   1   24.11    1.75
  -4   0  -1   24.66    1.72
  -4   0  -2    4.45    0.73
  -4   0  -2    3.34    1.23
  -4   0  -3    5.45    0.76
  -4   0  -3    1.24    1.25
   4   0   4   19.74    1.10
  -4   0  -4   16.31    0.92
   4   0   5   17.22    1.17
  -4   0  -5   11.39    1.33
   4   0   6   32.88    2.02
  -4   0  -6   46.30    3.69
   4   0   7    2.18    1.02
  -4   0  -7    0.61    1.35
   4   0   8    7.41    1.34
  -4   0  -8    9.50    2.30
   4   0   9    0.12    0.85
  -4   0  -9    0.60    2.01
   4   0  10    1.38    0.95
  -4   0 -10   -0.95    1.88
   4   0  11    0.77    0.99
  -4   0 -11    0.24    1.72
   4   0  12    0.71    1.44
  -4   0 -12    3.63    1.85
   4   0  13    0.61    6.46
  -4   0 -13   -2.08    2.76
   4   0  14    1.08    1.58
  -4   0 -14    2.98    2.08
   4   2 -14    1.16    2.08
  -4  -2  14    2.57    3.35
   4   2 -13    1.30    2.10
  -4  -2  13    4.47    2.41
   4   2 -12    1.50    2.57
  -4  -2  12   -2.74    2.05
   4   2 -11    4.45    2.35
  -4  -2  11   -1.40    1.85
   4   2 -10    2.42    2.23
  -4  -2  10    3.61    2.67
   4   2  -9    2.04    1.93
  -4  -2   9   -0.23    1.97
   4   2  -8    0.12    1.25
  -4  -2   8    1.12    1.80
   4   2  -7    0.88    1.56
  -4  -2   7    1.54    1.17
   4   2  -6    3.50    1.17
  -4  -2   6    2.83    1.59
   4   2  -5    0.96    0.98
  -4  -2   5    0.24    0.98
   4   2  -4    4.83    0.99
  -4  -2   4    3.67    0.95
   4   2  -3    5.97    1.07
  -4  -2   3    8.99    1.09
   4   2  -2   17.01    1.59
  -4  -2   2   17.01    1.54
   4   2  -1   20.60    1.60
  -4  -2   1   25.02    1.71
   4   2   0   92.99    4.08
  -4  -2   0   95.07    4.35
  -4  -2  -1   18.66    1.73
  -4  -2  -2   13.21    1.61
  -4  -2  -3    6.48    0.60
   4   2   4    1.50    0.39
  -4  -2  -4    1.86    0.73
   4   2   5    1.04    0.52
  -4  -2  -5    0.18    1.01
   4   2   6    2.61    0.75
  -4  -2  -6    0.24    1.42
   4   2   7    1.01    0.77
  -4  -2  -7    0.18    1.38
   4   2   8    1.00    0.89
  -4  -2  -8   -2.59    1.52
   4   2   9    1.37    0.96
  -4  -2  -9   -2.45    1.65
   4   2  10   -0.23    1.06
  -4  -2 -10   -1.63    2.77
   4   2  11    0.19    1.13
  -4  -2 -11   -1.33    1.87
   4   2  12    0.84    1.21
  -4  -2 -12   -1.60    1.96
   4   2  13   -0.60    1.26
  -4  -2 -13   -0.09    2.93
   4   2  14   -0.39    1.30
  -4  -2 -14    2.16    2.24
   4   4 -15    2.39    2.56
  -4  -4  14    1.01    2.31
   4   4 -13   -0.28    2.49
  -4  -4  13    0.26    2.76
   4   4 -12    3.46    1.81
  -4  -4  12   -1.24    2.57
   4   4 -11    0.26    1.61
  -4  -4  11   -0.55    2.22
   4   4 -10   -0.16    1.47
  -4  -4  10   -0.54    2.31
   4   4  -9   -0.30    1.75
  -4  -4   9    0.33    1.75
   4   4  -8    3.54    1.70
  -4  -4   8    2.60    1.73
   4   4  -7   -2.38    1.42
  -4  -4   7   -1.39    1.08
   4   4  -6    0.49    0.88
  -4  -4   6    0.13    1.30
   4   4  -5   -1.05    1.17
  -4  -4   5   -1.27    1.16
   4   4  -4    2.82    1.06
  -4  -4   4    1.08    0.78
   4   4  -3    3.02    1.25
  -4  -4   3    0.64    0.84
   4   4  -2    4.42    0.91
  -4  -4   2    7.83    1.46
   4   4  -1    1.04    0.88
  -4  -4   1    1.43    0.89
   4   4   0    0.90    1.03
  -4  -4   0   -0.32    1.04
  -4  -4  -1    1.15    1.10
  -4  -4  -4    1.60    1.20
   4   4   5    0.44    0.38
  -4  -4  -5   -0.69    1.04
   4   4   6    0.31    0.54
  -4  -4  -6   -3.44    1.42
   4   4   7   -0.28    0.72
  -4  -4  -7    3.37    2.05
   4   4   8    0.33    0.69
  -4  -4  -8    0.34    1.70
   4   4   9   -0.91    0.81
  -4  -4  -9    2.56    1.78
   4   4  10    1.01    0.89
  -4  -4 -10    3.05    2.25
   4   4  11    0.43    0.97
  -4  -4 -11    4.57    2.09
   4   4  12    0.61    1.03
  -4  -4 -12    0.52    2.18
   4   4  13   -0.53    1.10
  -4  -4 -13   -2.36    3.22
   4   4  14    1.44    1.13
  -4  -4 -14   -0.46    2.51
  -4  -6  14    0.00    2.04
   4   6 -13    3.19    1.82
  -4  -6  13    5.46    2.01
   4   6 -12    0.64    1.62
  -4  -6  12    0.95    1.67
   4   6 -11    1.86    1.54
  -4  -6  11    3.24    1.62
   4   6 -10   -1.31    1.31
  -4  -6  10    2.66    1.77
   4   6  -9    4.08    1.74
  -4  -6   9    3.60    1.51
   4   6  -8    6.78    1.33
  -4  -6   8    8.83    1.79
   4   6  -7    6.22    1.41
  -4  -6   7    5.88    1.49
   4   6  -6   32.47    2.62
  -4  -6   6   46.11    2.71
   4   6  -5   26.59    1.77
  -4  -6   5   24.63    1.82
   4   6  -4   11.21    1.34
  -4  -6   4   12.21    1.25
   4   6  -3   49.47    2.06
  -4  -6   3   33.84    2.22
   4   6  -2   60.76    2.38
  -4  -6   2   83.36    3.28
   4   6  -1   47.70    2.51
  -4  -6   1   78.31    3.02
  -4  -6   0  171.81    7.95
  -4  -6  -2   31.39    0.73
  -4  -6  -3    4.02    1.39
  -4  -6  -4    7.63    1.45
  -4  -6  -5    8.37    1.39
  -4  -6  -6   28.93    2.97
   4   6   7    2.20    0.49
  -4  -6  -7    7.25    1.73
   4   6   8    3.03    0.90
  -4  -6  -8   10.60    2.04
   4   6   9    0.49    0.72
  -4  -6  -9   -0.38    2.20
   4   6  10    1.52    1.06
  -4  -6 -10    5.33    2.49
   4   6  11    2.03    0.86
  -4  -6 -11    4.90    3.13
   4   6  12    0.23    0.88
  -4  -6 -12    2.58    2.41
   4   6  13    0.15    0.91
  -4  -6 -13   -1.31    2.54
   4   6  14    0.54    0.95
  -4  -6 -14    1.87    2.71
   4   8 -14    3.36    1.36
  -4  -8  14    2.43    3.35
  -4  -8  14    2.57    2.75
   4   8 -13    0.45    1.46
  -4  -8  13   -3.12    2.65
  -4  -8  13    0.79    2.33
   4   8 -12    1.41    1.42
  -4  -8  12   -0.30    2.09
   4   8 -11   -0.72    1.63
  -4  -8  11   -0.60    1.83
   4   8 -10    1.04    1.42
  -4  -8  10   -1.40    1.56
   4   8  -9    0.48    1.28
  -4  -8   9   -0.48    1.62
   4   8  -8    1.26    1.25
  -4  -8   8   -1.21    1.20
   4   8  -7    1.50    1.01
  -4  -8   7   -1.73    1.08
   4   8  -6    3.90    1.02
  -4  -8   6    2.58    1.06
   4   8  -5    2.80    0.80
  -4  -8   5    1.12    0.87
   4   8  -4    2.47    0.70
  -4  -8   4    2.72    0.81
   4   8  -3    4.42    0.80
  -4  -8   3    2.61    0.84
  -4  -8   2    3.44    0.61
  -4  -8   1    6.88    0.75
  -4  -8   0   12.46    0.79
  -4  -8   0   19.34    1.04
  -4  -8  -1    1.38    0.74
  -4  -8  -2    5.81    1.87
  -4  -8  -3   -1.78    1.25
  -4  -8  -4    0.79    1.18
  -4  -8  -5   -0.04    1.14
  -4  -8  -6    4.10    1.87
  -4  -8  -7    2.08    1.82
  -4  -8  -8   -0.55    2.27
   4   8   9    0.94    0.59
  -4  -8  -9   -0.52    2.42
   4   8  10    0.94    0.69
  -4  -8 -10   -1.95    2.23
   4   8  11    0.48    0.76
  -4  -8 -11    3.61    2.42
   4   8  12    0.48    0.76
  -4  -8 -12    2.56    2.59
   4   8  13   -0.71    0.78
  -4  -8 -13   -0.99    2.77
  -4  -8 -14   -4.55    3.13
   4  10 -14    1.84    1.29
  -4 -10  14    2.55    3.70
   4  10 -13   -1.42    1.73
  -4 -10  13    3.64    3.32
  -4 -10  13    1.95    2.04
   4  10 -12    0.21    1.71
  -4 -10  12    4.94    3.11
  -4 -10  12    1.35    1.85
   4  10 -11    2.44    1.59
  -4 -10  11    0.03    2.56
  -4 -10  11    0.35    1.60
   4  10 -10    0.49    1.34
  -4 -10  10   -1.92    2.31
  -4 -10  10    2.40    1.32
   4  10  -9    0.97    1.17
  -4 -10   9   -0.33    1.12
   4  10  -8    1.26    0.91
  -4 -10   8    0.33    1.18
   4  10  -7    1.12    0.71
  -4 -10   7    0.78    0.89
   4  10  -6    0.94    0.57
  -4 -10   6    0.15    1.00
   4  10  -5    0.57    0.68
  -4 -10   5    0.09    0.67
   4  10  -4    0.47    0.65
  -4 -10   4    0.23    0.62
  -4 -10   3    2.18    1.09
  -4 -10   3    3.58    0.77
  -4 -10   2    1.86    1.07
  -4 -10   2    6.01    0.81
  -4 -10   1    1.59    0.81
  -4 -10   1    0.93    0.81
  -4 -10   0    2.10    0.73
  -4 -10   0    1.03    0.56
  -4 -10  -1    4.56    0.56
  -4 -10  -1    0.25    1.11
  -4 -10  -2    4.89    0.63
  -4 -10  -2    2.80    1.29
  -4 -10  -3    2.30    1.21
  -4 -10  -4    0.64    1.19
  -4 -10  -5    0.30    1.22
  -4 -10  -6    6.06    1.52
  -4 -10  -7    1.58    2.00
  -4 -10  -8    5.73    2.85
  -4 -10  -9   -2.51    2.72
  -4 -10 -10   -2.65    2.49
  -4 -10 -11    1.36    2.63
  -4 -10 -12   -1.61    2.86
  -4 -10 -13    3.03    3.11
  -4 -10 -14    1.45    3.15
  -4 -12  14    3.64    4.62
   4  12 -13    0.73    1.37
  -4 -12  13    5.98    4.09
   4  12 -12    1.84    1.30
  -4 -12  12    5.90    3.71
   4  12 -11    0.54    1.04
  -4 -12  11    7.63    3.19
  -4 -12  11    0.24    1.33
   4  12 -10   -0.35    0.64
  -4 -12  10    2.95    2.80
  -4 -12  10    0.87    1.08
   4  12  -8    9.52    0.77
  -4 -12   8    7.95    1.17
   4  12  -7   19.86    0.92
  -4 -12   7   26.63    3.32
   4  12  -6   40.96    1.63
  -4 -12   6   31.05    3.93
  -4 -12   5   24.34    3.03
  -4 -12   5   35.14    1.33
  -4 -12   4   14.86    2.98
  -4 -12   4   24.85    1.11
  -4 -12   3   66.36    3.85
  -4 -12   3   62.77    2.39
  -4 -12   2  117.10    7.51
  -4 -12   2  108.30    4.22
  -4 -12   1  138.46    6.25
  -4 -12   1  128.51    6.20
  -4 -12   1  118.20    4.63
  -4 -12   0  137.08    6.81
  -4 -12   0  160.17    7.86
  -4 -12  -1   94.49    3.72
  -4 -12  -1   87.08    4.11
  -4 -12  -2   76.65    3.17
  -4 -12  -2   76.10    4.10
  -4 -12  -3   18.86    1.97
  -4 -12  -4   25.09    2.31
  -4 -12  -5   16.77    2.12
  -4 -12  -6   10.22    1.96
  -4 -12  -7    5.80    2.02
  -4 -12  -8    5.93    3.06
  -4 -12  -9   -0.91    2.41
  -4 -12 -10   -1.52    2.67
  -4 -12 -11    6.03    3.20
  -4 -12 -12   -0.47    3.01
  -4 -12 -13    0.38    3.11
  -4 -14  13    0.96    4.35
  -4 -14  12    3.33    4.39
  -4 -14  11    6.44    4.36
  -4 -14  10    1.95    3.61
  -4 -14   9    4.72    3.36
  -4 -14   8    5.76    3.05
  -4 -14   7    8.75    2.92
  -4 -14   6    5.92    2.28
  -4 -14   5    6.65    1.97
  -4 -14   5    3.56    0.61
  -4 -14   4    3.54    1.76
  -4 -14   4    5.69    0.67
  -4 -14   4    4.64    0.59
  -4 -14   3   19.57    2.08
  -4 -14   3   13.89    1.09
  -4 -14   3   17.40    1.26
  -4 -14   2   18.54    2.06
  -4 -14   2   20.85    1.47
  -4 -14   2   19.01    1.08
  -4 -14   1   25.78    2.26
  -4 -14   1   21.02    1.73
  -4 -14   0   24.65    1.57
  -4 -14   0   25.57    1.53
  -4 -14  -1   22.44    1.17
  -4 -14  -1   17.66    1.56
  -4 -14  -2   19.22    1.31
  -4 -14  -2   19.51    1.80
   4  14   3    4.18    0.81
  -4 -14  -3    1.04    1.40
   4  14   4    2.41    0.77
  -4 -14  -4    2.83    1.45
   4  14   5    1.81    0.63
  -4 -14  -5    2.72    1.55
   4  14   6    1.70    0.51
  -4 -14  -6    0.27    1.88
  -4 -14  -7    0.60    1.94
  -4 -14  -8    5.78    1.86
  -4 -14  -9   -2.36    2.64
  -4 -14 -10    1.45    2.83
  -4 -14 -11    1.34    4.08
  -4 -14 -12    6.09    3.51
  -4 -14 -13   -0.44    3.25
  -4 -16  13    5.85    5.09
  -4 -16  12    0.34    4.29
  -4 -16  11    0.96    4.04
  -4 -16  10   -1.33    3.71
  -4 -16   9    2.82    3.53
  -4 -16   8    8.14    3.50
  -4 -16   7    5.76    2.84
  -4 -16   6    5.22    2.41
  -4 -16   5    4.28    1.99
  -4 -16   4    5.80    1.75
  -4 -16   4    1.29    0.86
  -4 -16   4    2.03    0.47
  -4 -16   3    2.89    1.41
  -4 -16   3    2.13    0.94
  -4 -16   3    2.34    0.78
  -4 -16   2    3.92    1.36
  -4 -16   2    3.57    1.14
  -4 -16   2    2.19    0.97
  -4 -16   1    8.94    1.86
  -4 -16   1    7.78    1.10
  -4 -16   0   14.94    1.41
  -4 -16   0   12.83    1.43
  -4 -16  -1    3.92    0.85
  -4 -16  -1   10.18    1.73
  -4 -16  -2    1.20    0.62
  -4 -16  -2    3.19    1.32
   4  16   3    2.54    0.90
  -4 -16  -3    1.74    1.45
   4  16   4    2.46    0.94
  -4 -16  -4    0.27    1.75
   4  16   5    2.05    0.66
  -4 -16  -5   -1.70    1.94
   4  16   6    0.36    0.55
  -4 -16  -6   -1.41    1.97
  -4 -16  -7    2.94    1.91
  -4 -16  -8    2.17    1.94
  -4 -16  -9    0.49    1.94
  -4 -16 -10    0.92    2.05
  -4 -16 -11    1.17    3.16
  -4 -16 -12    2.91    3.43
  -4 -18  12   -0.61    4.59
  -4 -18  11    0.30    4.22
  -4 -18  10    2.62    5.44
  -4 -18   9    4.14    3.75
  -4 -18   8    2.90    3.24
  -4 -18   7    7.52    3.08
  -4 -18   6   10.11    2.83
  -4 -18   5    1.00    1.78
  -4 -18   4    6.54    2.43
  -4 -18   4    4.80    0.96
  -4 -18   3    4.86    1.75
  -4 -18   3    9.16    1.44
  -4 -18   3    5.36    0.68
  -4 -18   2   19.18    2.14
  -4 -18   2   12.43    1.42
  -4 -18   1   31.13    3.19
  -4 -18   1   26.96    3.06
  -4 -18   0   26.09    1.97
  -4 -18   0   31.51    2.56
  -4 -18  -1   16.52    2.19
  -4 -18  -1   29.55    3.14
   4  18   2    9.53    1.02
  -4 -18  -2    7.56    1.18
  -4 -18  -2    6.80    2.71
   4  18   3    3.55    1.08
  -4 -18  -3   -1.19    1.89
   4  18   4    2.22    0.96
  -4 -18  -4    7.42    2.04
   4  18   5    3.94    0.90
  -4 -18  -5    7.00    1.93
   4  18   6    5.43    0.98
  -4 -18  -6    5.00    2.10
   4  18   7    2.15    0.62
  -4 -18  -7    4.36    2.04
  -4 -18  -8   -0.70    2.14
  -4 -18  -9   -0.80    2.21
  -4 -18 -10   -1.41    2.33
  -4 -18 -11    0.76    2.35
  -4 -18 -12    1.32    3.32
  -4 -20  12   10.53    5.33
  -4 -20  11    3.89    4.31
  -4 -20  10    7.28    4.17
  -4 -20   9    3.82    3.35
  -4 -20   8   10.02    3.33
  -4 -20   7    3.04    2.52
  -4 -20   6    8.23    2.54
  -4 -20   5    7.56    2.25
  -4 -20   4    1.28    1.74
  -4 -20   4    0.90    0.82
  -4 -20   3    5.63    1.72
  -4 -20   3    1.86    1.13
  -4 -20   3    0.76    0.82
  -4 -20   2    2.70    1.44
  -4 -20   2    1.21    1.12
  -4 -20   1    2.21    1.49
  -4 -20   1    3.78    1.72
  -4 -20   0    1.66    1.75
  -4 -20   0   16.51    2.21
  -4 -20  -1    2.13    1.48
  -4 -20  -1    2.80    1.50
   4  20   2    1.14    0.89
  -4 -20  -2    0.54    0.86
  -4 -20  -2    1.26    1.57
   4  20   3    0.75    1.15
  -4 -20  -3    1.01    1.71
   4  20   4    1.59    1.04
  -4 -20  -4   -0.60    2.50
   4  20   5    1.70    0.96
  -4 -20  -5    1.21    2.02
   4  20   6    1.69    0.83
  -4 -20  -6   -0.04    2.11
   4  20   7    1.60    0.85
  -4 -20  -7    1.11    2.24
   4  20   8    0.00    0.65
  -4 -20  -8    4.16    3.08
  -4 -20  -9    3.71    2.55
  -4 -20 -10    4.32    2.67
  -4 -20 -11   -2.40    2.75
  -4 -22  11    0.58    4.22
  -4 -22  10   -1.30    3.82
  -4 -22   8    3.11    3.02
  -4 -22   7    5.59    2.78
  -4 -22   6    1.65    2.31
  -4 -22   5    4.35    2.28
  -4 -22   4    0.73    2.00
  -4 -22   3   13.56    2.63
  -4 -22   3    0.16    0.90
  -4 -22   2    1.89    1.54
  -4 -22   1    4.52    1.67
  -4 -22   1    4.78    1.94
  -4 -22   0    1.66    1.79
  -4 -22   0    8.41    2.29
  -4 -22  -1    0.00    1.18
  -4 -22  -1   -1.07    1.66
   4  22   2    0.59    0.97
  -4 -22  -2    0.14    1.83
   4  22   3    2.03    1.29
  -4 -22  -3   -2.91    1.99
   4  22   4    0.00    1.16
  -4 -22  -4    1.31    2.07
   4  22   5   -1.23    1.06
  -4 -22  -5    1.57    2.17
  -4 -22  -6   -4.63    3.40
   4  22   7    0.18    0.77
  -4 -22  -7   -2.39    2.36
   4  22   8    1.10    0.63
  -4 -22  -8   -0.39    2.51
  -4 -22  -9    0.46    2.57
  -4 -22 -10    3.00    3.89
  -4 -24  10    3.96    4.20
  -4 -24   9    4.24    3.59
  -4 -24   8   -0.29    2.89
  -4 -24   7    0.27    2.58
  -4 -24   6    1.52    2.50
  -4 -24   5    7.14    2.76
  -4 -24   4    1.46    2.25
  -4 -24   3    1.57    1.12
  -4 -24   3    1.93    1.02
  -4 -24   2    4.93    1.97
  -4 -24   2    1.24    1.60
  -4 -24   1   17.65    2.73
  -4 -24   1    4.69    2.37
  -4 -24   0    8.28    1.88
  -4 -24   0    3.05    1.93
  -4 -24  -1    3.03    1.95
  -4 -24  -1    3.05    1.98
  -4 -24  -2    3.45    2.21
   4  24   3    0.72    1.12
  -4 -24  -3    6.77    2.32
   4  24   4    1.28    1.33
  -4 -24  -4    0.36    2.40
   4  24   5    1.10    1.20
  -4 -24  -5    2.59    2.48
  -4 -24  -6    5.68    2.83
   4  24   7    0.69    0.89
  -4 -24  -7    1.28    2.62
  -4 -24  -8    0.57    2.66
  -4 -24  -9    1.73    2.84
  -4 -24 -10    2.84    3.11
  -4 -26   9    0.12    3.55
  -4 -26   8    0.88    3.21
  -4 -26   7    3.07    3.02
  -4 -26   6    6.14    3.01
  -4 -26   5   -4.36    2.70
  -4 -26   4    1.50    2.36
  -4 -26   3   -4.36    2.13
  -4 -26   3    0.24    1.13
  -4 -26   3    0.30    1.02
  -4 -26   2    6.34    2.59
  -4 -26   2    1.69    1.54
  -4 -26   2    0.79    1.33
  -4 -26   1    1.21    2.26
  -4 -26   1    1.24    1.94
  -4 -26   0    2.44    1.80
  -4 -26   0    2.58    1.82
  -4 -26  -1    3.73    1.56
  -4 -26  -1   -3.56    2.73
  -4 -26  -2   -4.72    3.26
   4  26   3    0.98    1.11
  -4 -26  -3    1.60    3.31
   4  26   4    0.91    1.08
  -4 -26  -4   -0.79    3.51
   4  26   5    1.54    1.32
  -4 -26  -5   -0.79    3.68
   4  26   6    2.50    1.22
  -4 -26  -6    3.19    3.86
  -4 -26  -7   -0.38    2.78
   4  26   8    0.62    0.83
  -4 -26  -8   -1.71    2.88
  -4 -28   6    4.20    3.05
  -4 -28   5    0.94    2.63
  -4 -28   4    2.92    2.60
  -4 -28   3    5.34    3.02
  -4 -28   3    2.50    1.22
  -4 -28   3    1.40    1.12
  -4 -28   2    7.67    2.90
  -4 -28   2    3.58    1.72
  -4 -28   2    2.46    1.46
  -4 -28   1    4.19    3.04
  -4 -28   1    2.17    2.04
  -4 -28   0    4.03    2.88
  -4 -28   0    6.62    2.68
  -4 -28  -1    4.78    3.02
  -4 -28  -2    3.91    2.52
   4  28   5    0.97    1.02
   4  28   6    1.92    1.01
  -4 -30   6    1.03    2.91
  -4 -30   5    6.66    3.08
  -4 -30   4   -0.62    3.28
  -4 -30   3    2.34    3.04
  -4 -30   3    0.71    1.04
  -4 -30   3    1.08    1.34
  -4 -30   2    2.28    3.35
  -4 -30   2    2.11    1.59
  -4 -30   2   -0.76    1.43
  -4 -30   1    2.69    2.25
  -4 -30   1    0.20    2.06
  -4 -30   0    0.48    2.02
  -4 -30   0   -0.39    2.33
  -4 -30  -1    4.73    2.22
  -4 -30  -2    2.25    2.48
  -4 -30  -3   -3.77    3.86
  -4 -30  -4    0.84    4.01
  -4 -30  -5   -0.04    4.13
  -4 -32   3    2.66    2.96
  -4 -32   2    6.84    2.73
  -4 -32   2    1.14    1.72
  -4 -32   2    2.78    1.53
  -4 -32   1   -1.95    2.40
  -4 -32   1    0.79    2.06
  -4 -32   0    4.34    2.70
  -4 -32  -1    3.09    2.22
  -4 -32  -2    4.91    3.57
  -4 -32  -3    2.00    2.84
   5 -31  -4    4.86    3.06
  -5  31   4    0.79    3.21
   5 -31  -3    1.46    2.44
  -5  31   3   -2.73    3.17
   5 -31  -2   -1.36    2.29
  -5  31   2    3.06    2.88
   5 -31  -1    4.01    2.50
   5 -31  -1    1.87    2.52
  -5  31   1    5.58    2.69
   5 -31   0   -2.21    1.98
  -5  31   0   -0.89    1.75
  -5  31   0    2.79    1.92
   5 -31   1    2.12    2.50
  -5  31  -1    1.26    2.08
  -5  31  -1    0.58    1.28
   5 -31   2    0.63    1.33
  -5  31  -2    2.09    2.60
  -5  31  -2    0.39    0.89
   5 -31   3    1.85    1.69
  -5  31  -3    0.39    0.67
   5 -29  -7    3.78    3.66
  -5  29   7    2.90    3.82
   5 -29  -6    1.75    3.40
  -5  29   6    3.32    3.58
   5 -29  -5   -1.70    3.13
  -5  29   5   -1.49    3.74
   5 -29  -4   -4.49    3.84
  -5  29   4   10.91    4.60
   5 -29  -3    0.93    2.66
  -5  29   3    4.20    4.28
   5 -29  -2    1.85    2.23
  -5  29   2    0.16    2.90
   5 -29  -1    4.16    3.37
  -5  29   1    6.37    2.91
   5 -29   0    4.66    2.26
  -5  29   0    1.78    1.95
  -5  29   0    4.58    2.41
   5 -29   1    2.71    2.02
  -5  29  -1    3.42    2.30
  -5  29  -1    6.99    1.91
   5 -29   2   -0.26    1.95
  -5  29  -2    3.04    2.37
  -5  29  -2    3.36    1.59
   5 -29   3   -0.96    1.10
  -5  29  -3    1.55    2.85
  -5  29  -3    0.73    0.91
   5 -29   4    3.32    1.26
  -5  29  -4    4.24    3.23
  -5  29  -4    1.16    0.71
  -5  29  -5    3.46    3.70
   5 -27  -8   -0.45    3.40
  -5  27   8    0.38    0.33
  -5  27   8    1.05    3.51
   5 -27  -7   -0.79    3.30
  -5  27   7    4.83    3.87
   5 -27  -6    0.95    3.04
  -5  27   6    0.61    3.66
   5 -27  -5   -0.95    2.80
  -5  27   5    2.09    3.38
   5 -27  -4   -0.58    2.63
  -5  27   4    1.38    3.16
   5 -27  -3    2.36    2.62
  -5  27   3    3.92    2.63
   5 -27  -2    2.98    2.95
  -5  27   2    1.01    3.29
   5 -27  -1    7.30    3.37
  -5  27   1    5.35    3.36
   5 -27   0    7.53    2.98
  -5  27   0    3.01    2.14
   5 -27   1    1.85    1.65
  -5  27  -1   -0.86    2.01
  -5  27  -1   -0.63    1.62
   5 -27   2    0.49    1.92
  -5  27  -2   -0.14    2.27
  -5  27  -2    1.59    1.73
   5 -27   3    0.14    1.24
  -5  27  -3    4.32    2.83
  -5  27  -3    1.48    1.14
   5 -27   4    1.73    1.16
  -5  27  -4    0.18    3.08
  -5  27  -4    1.34    0.70
   5 -27   5   -4.19    3.72
   5 -27   5    1.34    1.00
  -5  27  -5   -1.54    3.25
   5 -27   6    6.94    3.86
  -5  27  -6   -1.85    3.28
   5 -27   7    2.15    3.85
  -5  27  -7    2.53    3.26
   5 -25  -9   -2.21    4.53
  -5  25   9    0.50    0.43
  -5  25   9    1.32    3.35
   5 -25  -8    4.88    3.44
  -5  25   8    2.39    4.01
   5 -25  -7    0.40    3.11
  -5  25   7   -7.26    3.78
   5 -25  -6   -2.47    2.86
  -5  25   6    2.01    3.44
   5 -25  -5   -2.96    3.57
  -5  25   5    1.70    2.72
   5 -25  -4    3.60    2.66
  -5  25   4    0.55    3.59
   5 -25  -3    0.32    3.36
  -5  25   3    5.43    2.59
   5 -25  -2    2.92    2.29
  -5  25   2    9.12    1.48
  -5  25   2    3.58    2.62
   5 -25  -1    2.42    2.43
  -5  25   1   12.78    1.98
  -5  25   1    9.36    3.55
   5 -25   0   11.89    3.17
  -5  25   0    7.77    3.18
   5 -25   1   -0.83    2.19
  -5  25  -1    3.51    2.07
  -5  25  -1    1.39    1.74
   5 -25   2    2.87    1.93
  -5  25  -2   -0.25    2.28
  -5  25  -2    0.23    1.45
  -5  25  -3    0.95    2.46
  -5  25  -3    2.04    1.19
   5 -25   4    1.58    0.86
  -5  25  -4   -1.99    2.94
  -5  25  -4    1.27    1.08
   5 -25   5    3.05    3.41
   5 -25   5    1.79    1.07
  -5  25  -5   -5.74    3.11
  -5  25  -5    0.91    0.61
   5 -25   6    0.43    3.32
  -5  25  -6   -1.18    3.29
   5 -25   7   -0.16    3.40
  -5  25  -7    1.15    3.00
   5 -25   8    7.58    3.57
  -5  25  -8   -2.32    2.79
   5 -23 -10    2.89    3.52
  -5  23  10    1.61    3.40
   5 -23  -9   -4.78    3.16
  -5  23   9    7.29    3.53
   5 -23  -8    2.09    3.00
  -5  23   8    0.87    0.52
  -5  23   8    2.56    3.55
   5 -23  -7   -1.56    2.87
  -5  23   7    1.71    0.51
  -5  23   7    4.32    3.50
   5 -23  -6    3.71    3.18
  -5  23   6   11.66    3.21
   5 -23  -5    4.61    2.67
  -5  23   5    2.63    0.76
  -5  23   5    5.27    2.79
   5 -23  -4    8.43    2.77
  -5  23   4    6.41    1.08
  -5  23   4    7.92    2.94
   5 -23  -3    3.48    2.47
  -5  23   3    7.05    3.54
   5 -23  -2   14.60    2.44
  -5  23   2    6.74    2.90
   5 -23  -1   37.45    3.59
  -5  23   1   35.40    3.12
  -5  23   1   32.78    3.91
   5 -23   0   37.38    3.84
  -5  23   0   41.84    3.92
   5 -23   1   12.49    3.16
  -5  23  -1   23.17    3.02
  -5  23  -1   21.93    3.27
   5 -23   2    7.31    2.31
  -5  23  -2   12.17    2.66
  -5  23  -2    5.70    2.29
  -5  23  -3   11.58    2.74
  -5  23  -3    4.31    1.88
   5 -23   4    8.62    3.53
  -5  23  -4   12.99    3.22
  -5  23  -4    3.84    1.52
   5 -23   5    4.27    3.31
   5 -23   5    4.39    1.21
  -5  23  -5    6.24    3.23
  -5  23  -5    3.22    1.06
   5 -23   6   -4.40    3.25
  -5  23  -6    5.25    3.27
  -5  23  -6    2.07    0.63
   5 -23   7    2.26    3.24
  -5  23  -7    1.56    2.97
   5 -23   8   -3.97    3.28
  -5  23  -8    2.89    2.52
   5 -23   9    6.12    3.84
   5 -21 -11    1.45    3.49
   5 -21 -11    4.22    3.52
  -5  21  11    0.14    3.21
   5 -21 -10   -3.33    3.18
   5 -21 -10   -4.77    3.22
  -5  21  10    4.22    3.43
   5 -21  -9    2.71    2.97
   5 -21  -9    1.14    2.97
  -5  21   9    1.03    3.32
   5 -21  -8    2.18    2.81
  -5  21   8    1.71    3.23
   5 -21  -7    0.42    2.53
  -5  21   7    2.12    2.62
   5 -21  -6    0.72    2.34
  -5  21   6   -0.11    0.62
  -5  21   6   -1.48    2.48
   5 -21  -5   -2.30    2.26
  -5  21   5    1.68    0.94
  -5  21   5    4.53    2.46
   5 -21  -4    5.15    3.04
  -5  21   4    2.74    2.44
   5 -21  -3    3.80    2.00
  -5  21   3    2.20    1.13
  -5  21   3   -0.39    2.18
   5 -21  -2    1.53    1.96
  -5  21   2    3.92    1.66
  -5  21   2    5.40    2.84
   5 -21  -1    3.05    1.83
  -5  21   1    9.04    1.66
  -5  21   1    5.34    2.09
  -5  21   1    4.21    2.10
   5 -21   0    3.88    1.89
  -5  21   0    9.18    1.93
  -5  21   0    3.24    2.53
   5 -21   1   -2.80    1.99
  -5  21  -1    5.68    2.04
  -5  21  -1    4.04    1.56
   5 -21   2    3.16    1.82
  -5  21  -2    4.66    2.16
  -5  21  -2    0.63    1.79
   5 -21   3   -1.33    1.27
  -5  21  -3    2.20    2.17
  -5  21  -3    1.12    1.48
   5 -21   4    2.26    2.78
   5 -21   4    1.99    1.03
  -5  21  -4    4.41    2.68
  -5  21  -4    1.96    1.41
   5 -21   5    5.66    2.77
   5 -21   5    1.42    1.08
  -5  21  -5    0.57    2.84
  -5  21  -5    2.62    1.24
   5 -21   6    1.40    2.90
  -5  21  -6    5.01    2.99
  -5  21  -6    2.95    1.03
   5 -21   7   -1.07    2.90
  -5  21  -7   -3.35    2.60
  -5  21  -7    0.48    0.73
   5 -21   8   -0.67    3.03
  -5  21  -8   -0.72    2.36
   5 -21   9    2.88    3.32
   5 -21  10   -1.23    3.28
   5 -19 -12    0.98    3.45
   5 -19 -12   -1.13    3.48
  -5  19  12   -1.50    3.10
   5 -19 -11    3.72    3.21
  -5  19  11   -1.25    2.94
   5 -19 -10    2.11    3.04
  -5  19  10    2.95    3.30
   5 -19  -9   -0.43    2.87
  -5  19   9    7.01    3.21
   5 -19  -8   -0.47    2.46
   5 -19  -8   -0.83    2.46
  -5  19   8    1.58    2.43
   5 -19  -7    2.69    2.35
  -5  19   7   -0.36    2.44
   5 -19  -6   -0.89    2.14
  -5  19   6    0.53    2.33
   5 -19  -5    2.03    2.06
  -5  19   5    1.12    2.26
   5 -19  -4   -4.00    1.87
  -5  19   4    0.17    0.82
  -5  19   4    1.48    2.04
   5 -19  -3    1.53    1.82
  -5  19   3    2.34    1.06
  -5  19   3    3.87    2.03
   5 -19  -2    1.52    1.87
  -5  19   2    5.41    1.43
  -5  19   2    9.59    2.71
   5 -19  -1    2.04    1.58
  -5  19   1    5.42    1.84
   5 -19   0    2.93    1.72
  -5  19   0   11.00    1.87
  -5  19   0    5.99    2.32
  -5  19  -1    5.43    2.05
  -5  19  -1    5.16    1.55
   5 -19   2    3.10    1.77
  -5  19  -2    2.33    2.04
  -5  19  -2    4.44    1.79
   5 -19   3    2.39    2.51
   5 -19   3    1.78    1.32
  -5  19  -3    5.26    2.08
  -5  19  -3    1.84    1.53
   5 -19   4    1.51    2.35
   5 -19   4    2.27    1.05
  -5  19  -4    0.93    2.19
  -5  19  -4   -0.73    1.66
   5 -19   5   -2.82    2.56
   5 -19   5    3.64    1.06
  -5  19  -5    0.04    2.69
  -5  19  -5    3.42    1.25
   5 -19   6    3.56    2.63
  -5  19  -6   -4.67    3.66
  -5  19  -6    2.21    1.14
   5 -19   7   -2.12    2.62
  -5  19  -7   -3.21    2.41
  -5  19  -7    1.61    1.20
   5 -19   8    0.57    2.71
  -5  19  -8   -1.83    2.11
  -5  19  -8   -0.13    0.57
  -5  19  -8    1.06    0.90
   5 -19   9    4.28    2.91
  -5  19  -9    1.00    0.86
   5 -19  10    0.52    3.36
   5 -19  11    3.19    3.69
   5 -17 -13    0.90    3.47
   5 -17 -13    0.23    3.51
  -5  17  13   -0.75    3.17
   5 -17 -12    2.46    3.33
  -5  17  12    0.54    3.02
   5 -17 -11    0.95    2.97
  -5  17  11   -1.31    3.15
   5 -17 -10   -1.93    2.89
  -5  17  10   -4.40    3.12
   5 -17  -9    3.29    2.52
  -5  17   9   -1.66    2.38
   5 -17  -8    2.21    2.31
  -5  17   8   -2.22    2.33
   5 -17  -7    1.21    2.18
  -5  17   7    0.83    2.30
   5 -17  -6    7.25    2.32
  -5  17   6    6.80    2.51
   5 -17  -5    4.36    2.03
  -5  17   5    6.18    2.26
   5 -17  -4    1.82    1.91
  -5  17   4    7.01    2.09
   5 -17  -3    7.69    2.13
  -5  17   3   10.77    1.28
  -5  17   3   17.54    3.15
   5 -17  -2   14.21    2.28
  -5  17   2   18.90    1.76
  -5  17   2   16.12    2.43
   5 -17  -1   37.77    2.95
  -5  17   1   35.81    3.01
  -5  17   1   41.13    3.25
   5 -17   0   40.74    3.14
  -5  17   0   40.27    4.05
   5 -17   1   18.53    1.97
  -5  17  -1   23.47    2.63
  -5  17  -1   16.79    2.64
   5 -17   2   22.36    2.43
  -5  17  -2   12.65    2.78
  -5  17  -2   17.33    1.70
   5 -17   3    8.18    2.74
   5 -17   3   13.68    1.68
  -5  17  -3    9.50    2.45
  -5  17  -3   11.15    1.37
   5 -17   4    5.77    2.49
   5 -17   4    9.99    1.44
  -5  17  -4    5.15    2.38
   5 -17   5    3.93    2.61
   5 -17   5    7.93    1.05
  -5  17  -5    4.34    3.79
  -5  17  -5   10.06    1.39
   5 -17   6    2.09    2.43
  -5  17  -6    1.13    2.51
   5 -17   7    5.01    2.48
  -5  17  -7   -2.32    2.30
  -5  17  -7    0.81    0.59
   5 -17   8   -1.44    2.60
  -5  17  -8    1.73    1.97
  -5  17  -8    1.81    0.82
  -5  17  -8    0.52    0.73
   5 -17   9    1.34    2.98
  -5  17  -9    0.64    0.67
  -5  17  -9    0.02    1.08
   5 -17  10   -1.11    3.15
  -5  17 -10    0.84    0.66
  -5  17 -10    0.38    1.30
   5 -17  11    1.48    3.28
  -5  17 -11    1.07    0.51
  -5  17 -11    2.11    1.29
   5 -17  12    2.89    3.50
   5 -15 -13    4.41    3.45
  -5  15  13    1.82    3.29
   5 -15 -12    2.03    3.14
  -5  15  12    2.13    2.98
   5 -15 -11   -0.16    2.85
  -5  15  11    2.31    3.10
   5 -15 -10    1.60    2.47
  -5  15  10   -3.02    2.80
   5 -15  -9    4.85    2.50
  -5  15   9    1.64    2.40
   5 -15  -8    7.02    2.36
  -5  15   8    2.94    2.49
   5 -15  -7   10.99    2.36
  -5  15   7    6.16    2.53
   5 -15  -6    8.24    2.14
  -5  15   6    8.09    2.37
   5 -15  -5    8.62    1.93
  -5  15   5    7.59    2.17
   5 -15  -4    4.74    1.72
  -5  15   4    6.92    1.93
   5 -15  -3   14.47    2.08
  -5  15   3   14.72    2.25
   5 -15  -2   27.75    2.60
  -5  15   2   26.48    2.00
  -5  15   2   27.34    2.79
   5 -15  -1   43.75    3.16
  -5  15   1   39.72    3.01
  -5  15   1   42.71    3.20
   5 -15   0   43.88    4.02
  -5  15   0   49.55    3.98
  -5  15   0   39.79    3.08
   5 -15   1   38.81    2.67
  -5  15  -1   34.48    3.16
  -5  15  -1   33.26    3.07
   5 -15   2   21.69    1.88
  -5  15  -2   21.88    2.75
  -5  15  -2   22.49    2.20
   5 -15   3    3.27    2.14
   5 -15   3    7.83    1.46
  -5  15  -3    1.93    2.04
  -5  15  -3    7.10    1.44
   5 -15   4   10.42    3.21
   5 -15   4   12.44    1.57
  -5  15  -4    7.99    2.41
  -5  15  -4   13.34    1.16
   5 -15   5   11.33    2.88
  -5  15  -5   19.95    3.10
  -5  15  -5   19.15    1.48
   5 -15   6    5.70    2.77
  -5  15  -6   13.27    2.82
  -5  15  -6   12.59    1.25
   5 -15   7    5.61    2.75
  -5  15  -7    5.92    2.49
  -5  15  -7    9.80    1.31
   5 -15   8    3.43    2.81
  -5  15  -8    0.16    1.83
  -5  15  -8    3.33    1.07
  -5  15  -8    3.28    1.46
   5 -15   9    0.51    3.69
  -5  15  -9    0.22    0.88
  -5  15  -9    2.23    1.51
   5 -15  10   -1.20    2.94
  -5  15 -10    1.70    0.85
  -5  15 -10    0.80    1.62
   5 -15  11    0.19    3.01
  -5  15 -11    1.64    0.80
  -5  15 -11   -0.60    1.67
   5 -15  12    1.79    3.16
  -5  15 -12    1.74    0.78
  -5  15 -12    2.04    1.83
   5 -13 -13    0.34    3.17
  -5  13  13    3.08    3.16
   5 -13 -12    5.50    3.01
  -5  13  12   -0.91    2.91
   5 -13 -11    4.63    2.89
  -5  13  11    5.59    3.27
   5 -13 -10   -0.27    2.38
  -5  13  10   -0.65    2.28
   5 -13  -9    0.00    2.16
  -5  13   9   -0.90    2.15
   5 -13  -8   -0.19    1.99
  -5  13   8    0.55    2.05
   5 -13  -7    1.28    1.86
   5 -13  -7    5.00    1.86
  -5  13   7   -0.29    2.03
   5 -13  -6    6.61    1.89
  -5  13   6    7.72    2.13
   5 -13  -5    5.10    1.68
  -5  13   5    6.61    1.91
   5 -13  -4    3.70    1.52
  -5  13   4    4.02    1.68
   5 -13  -3   21.68    2.19
  -5  13   3   19.78    2.29
   5 -13  -2   31.75    2.21
  -5  13   2   18.77    2.43
   5 -13  -1   33.90    2.59
  -5  13   1   33.04    2.56
  -5  13   1   35.29    2.67
   5 -13   0   36.85    2.63
  -5  13   0   33.79    2.95
   5 -13   1   44.57    3.59
  -5  13  -1   45.22    4.01
  -5  13  -1   37.65    2.54
   5 -13   2   32.76    2.84
  -5  13  -2   29.19    2.91
  -5  13  -2   27.57    2.45
   5 -13   3    7.89    2.08
   5 -13   3   11.04    1.18
  -5  13  -3    7.03    2.12
  -5  13  -3    9.49    1.39
   5 -13   4    4.69    1.95
   5 -13   4    9.71    1.35
  -5  13  -4    4.98    2.01
   5 -13   5    6.26    2.09
  -5  13  -5    7.25    2.27
  -5  13  -5    8.37    1.23
   5 -13   6    2.19    2.15
  -5  13  -6    6.47    2.16
  -5  13  -6    6.39    1.43
   5 -13   7    3.61    2.44
  -5  13  -7    2.00    2.60
  -5  13  -7    3.89    1.55
   5 -13   8    4.47    3.31
  -5  13  -8    1.16    1.21
  -5  13  -8    0.57    1.53
   5 -13   9    3.27    2.47
  -5  13  -9   -0.67    1.06
  -5  13  -9    0.44    1.50
   5 -13  10    6.55    2.60
  -5  13 -10    0.17    1.08
  -5  13 -10    0.86    1.45
   5 -13  11   -0.27    2.71
  -5  13 -11    0.89    1.21
  -5  13 -11   -0.24    1.51
   5 -13  12    2.64    2.79
  -5  13 -12    0.26    1.02
  -5  13 -12    0.86    1.70
   5 -13  13    0.95    2.90
  -5  13 -13    0.92    1.03
  -5  13 -13    1.05    1.90
   5 -11 -14   -3.08    3.25
   5 -11 -14   -1.63    3.23
   5 -11 -13   -0.04    2.91
  -5  11  13    0.70    4.01
   5 -11 -12   -1.83    2.74
  -5  11  12    3.65    3.17
   5 -11 -11    3.16    2.67
  -5  11  11    2.58    3.02
   5 -11 -10    3.32    2.33
  -5  11  10    3.48    2.34
   5 -11  -9    4.19    2.10
  -5  11   9   -0.78    2.15
   5 -11  -8    0.95    1.85
  -5  11   8   -0.04    1.97
   5 -11  -7    3.32    1.82
  -5  11   7    4.36    1.98
   5 -11  -6    5.52    1.77
  -5  11   6    5.12    1.93
   5 -11  -5    2.99    1.42
  -5  11   5    3.14    1.63
   5 -11  -4    1.55    1.36
  -5  11   4   -0.46    1.40
   5 -11  -3    1.39    1.29
  -5  11   3   -1.80    1.37
   5 -11  -2    2.31    1.18
  -5  11   2    0.79    1.31
   5 -11  -1   16.53    1.78
  -5  11   1   17.30    1.81
   5 -11   0   16.94    1.69
  -5  11   0   21.14    2.09
  -5  11   0   15.92    1.72
   5 -11   1    0.82    1.20
  -5  11  -1    3.32    1.80
  -5  11  -1    0.70    1.47
   5 -11   2    1.05    1.02
  -5  11  -2    1.68    1.51
  -5  11  -2    1.52    1.02
   5 -11   3    2.73    1.61
   5 -11   3    3.75    1.29
  -5  11  -3    0.07    1.71
  -5  11  -3    6.86    1.34
   5 -11   4    4.18    1.59
   5 -11   4    5.14    0.98
  -5  11  -4   -0.23    1.70
  -5  11  -4    5.37    0.90
   5 -11   5    1.89    2.33
  -5  11  -5    3.34    1.91
  -5  11  -5    5.72    1.42
   5 -11   6    0.95    2.01
  -5  11  -6    0.49    2.39
  -5  11  -6    3.74    1.47
   5 -11   7   -5.87    2.80
  -5  11  -7   -1.33    1.54
  -5  11  -7    1.03    1.33
   5 -11   8    1.66    2.21
  -5  11  -8    1.30    1.35
  -5  11  -8    1.14    1.07
   5 -11   9    1.30    1.73
  -5  11  -9    0.60    1.27
  -5  11  -9    0.02    1.47
   5 -11  10    0.82    1.87
  -5  11 -10    2.60    1.32
  -5  11 -10    1.05    1.43
   5 -11  11    2.07    1.96
  -5  11 -11    1.49    1.55
  -5  11 -11    2.47    1.59
   5 -11  12    2.70    2.05
  -5  11 -12    3.32    1.35
  -5  11 -12    2.52    1.78
   5 -11  13   -0.63    2.01
  -5  11 -13    1.78    1.34
  -5  11 -13    1.35    1.94
   5  -9 -14    3.12    3.30
  -5   9  14    7.73    3.65
   5  -9 -13    2.80    2.85
   5  -9 -13   -0.48    2.88
  -5   9  13    1.59    3.04
   5  -9 -12    6.22    3.03
  -5   9  12    8.84    3.63
   5  -9 -11    7.12    2.83
  -5   9  11    9.17    3.36
   5  -9 -10    0.71    2.13
  -5   9  10    2.24    2.93
   5  -9  -9    9.71    2.43
  -5   9   9    9.49    2.54
   5  -9  -8   23.91    2.71
  -5   9   8   15.94    2.94
   5  -9  -7   28.25    2.86
  -5   9   7   30.81    3.18
   5  -9  -6   43.29    3.30
  -5   9   6   46.37    3.83
   5  -9  -5   39.39    2.90
  -5   9   5   41.06    3.15
   5  -9  -4   25.53    2.32
  -5   9   4   32.49    2.59
   5  -9  -3  112.00    6.39
  -5   9   3  113.01    6.67
   5  -9  -2  156.17    8.38
  -5   9   2  178.77    9.48
   5  -9  -1  192.44   10.78
  -5   9   1  200.41   11.23
   5  -9   0  191.59   10.59
  -5   9   0  204.02   12.54
  -5   9   0  198.55   10.96
   5  -9   1  213.18   11.75
  -5   9  -1  198.83   12.72
  -5   9  -1  212.85   11.65
   5  -9   2  158.93    8.31
  -5   9  -2  193.86   12.65
  -5   9  -2  165.61    8.49
   5  -9   3   43.81    3.30
   5  -9   3   53.35    3.38
  -5   9  -3   45.13    3.51
  -5   9  -3   50.76    3.16
   5  -9   4   47.09    3.56
   5  -9   4   51.24    2.69
  -5   9  -4   61.10    3.89
  -5   9  -4   62.06    2.87
   5  -9   5   52.04    4.18
  -5   9  -5   64.57    4.57
  -5   9  -5   61.59    3.03
   5  -9   6   37.48    3.71
  -5   9  -6   35.60    3.21
  -5   9  -6   41.17    3.11
   5  -9   7   25.46    3.01
  -5   9  -7   20.82    2.09
  -5   9  -7   17.87    1.69
   5  -9   8    8.95    1.83
  -5   9  -8    5.48    1.82
  -5   9  -8    6.30    1.69
   5  -9   9    0.73    1.58
  -5   9  -9    1.08    1.45
  -5   9  -9    0.43    1.54
   5  -9  10    9.06    2.53
  -5   9 -10    3.67    1.89
   5  -9  11    2.97    2.42
  -5   9 -11    3.58    1.40
  -5   9 -11    1.18    1.48
   5  -9  12    5.00    2.47
  -5   9 -12    0.93    1.60
  -5   9 -12    2.34    1.59
   5  -9  13    0.84    2.39
  -5   9 -13   -1.12    1.21
  -5   9 -13   -0.17    1.73
   5  -7 -14    6.13    2.98
  -5   7  14    2.04    3.47
   5  -7 -13   -2.72    2.61
  -5   7  13    2.96    2.86
   5  -7 -12    2.92    2.44
   5  -7 -12   -1.39    2.46
  -5   7  12    2.08    3.03
   5  -7 -11   -0.54    2.30
   5  -7 -11   -2.05    2.28
  -5   7  11   -3.34    2.82
   5  -7 -10   -4.69    2.01
  -5   7  10    2.70    2.08
   5  -7  -9   -0.88    1.78
   5  -7  -9    0.42    1.74
  -5   7   9   -0.60    1.88
   5  -7  -8    1.03    1.57
  -5   7   8   -0.66    1.70
   5  -7  -7   -1.52    1.42
  -5   7   7   -2.11    1.64
   5  -7  -6   -0.91    1.27
  -5   7   6   -0.54    1.41
   5  -7  -5    0.32    1.21
  -5   7   5    1.55    1.36
   5  -7  -4    3.39    1.27
  -5   7   4    3.89    1.39
   5  -7  -3    0.05    1.14
  -5   7   3    1.05    1.19
   5  -7  -2    1.18    1.15
  -5   7   2    1.99    1.23
   5  -7  -1    9.42    1.39
  -5   7   1    6.86    1.46
   5  -7   0   13.09    1.61
  -5   7   0   12.74    1.65
   5  -7   1    5.02    1.29
  -5   7  -1    1.95    1.44
  -5   7  -1    4.60    1.23
   5  -7   2    0.95    0.97
  -5   7  -2    1.84    1.55
  -5   7  -2    1.12    1.02
   5  -7   3    8.02    1.32
   5  -7   3    5.39    1.54
  -5   7  -3    5.99    1.48
  -5   7  -3    6.86    1.12
   5  -7   4    2.27    1.11
  -5   7  -4    0.74    1.21
  -5   7  -4    1.44    1.29
   5  -7   5    2.50    1.18
  -5   7  -5   -0.36    1.73
  -5   7  -5    1.21    1.03
   5  -7   6    0.67    1.91
  -5   7  -6    0.49    1.16
  -5   7  -6   -0.93    0.96
   5  -7   7   -1.43    1.58
  -5   7  -7   -0.88    1.12
  -5   7  -7   -0.17    1.49
   5  -7   8    0.29    1.29
  -5   7  -8   -0.53    1.59
  -5   7  -8    2.00    1.48
   5  -7   9    2.71    1.86
  -5   7  -9    0.12    1.19
  -5   7  -9    1.85    1.61
   5  -7  10    0.35    1.45
  -5   7 -10    0.56    1.25
  -5   7 -10    1.90    1.33
   5  -7  11    1.95    1.54
  -5   7 -11    3.04    1.51
  -5   7 -11   -0.08    1.65
   5  -7  12    0.63    1.61
  -5   7 -12    2.81    1.34
  -5   7 -12    1.05    1.90
   5  -7  13    1.91    2.10
  -5   7 -13   -0.12    1.36
  -5   7 -13   -0.88    2.07
  -5   7 -14   -0.02    1.43
  -5   7 -14    1.03    2.31
   5  -5 -14    0.98    3.54
  -5   5  14   -1.54    3.06
   5  -5 -13    1.72    2.60
  -5   5  13    2.19    2.92
   5  -5 -12    0.25    2.34
  -5   5  12    2.95    2.93
   5  -5 -11    2.22    2.13
  -5   5  11   -0.80    2.25
   5  -5 -10    3.59    1.96
  -5   5  10    0.70    2.09
   5  -5  -9    1.88    1.70
  -5   5   9   -2.21    2.49
   5  -5  -8    0.34    1.53
  -5   5   8    1.32    1.66
   5  -5  -7    0.92    1.35
  -5   5   7    1.08    1.56
   5  -5  -6    4.52    1.50
  -5   5   6   12.70    1.70
   5  -5  -5    6.01    1.36
  -5   5   5    6.03    1.49
   5  -5  -4    3.45    1.29
  -5   5   4    6.28    1.39
   5  -5  -3    3.21    1.15
  -5   5   3    5.61    1.32
   5  -5  -2    4.47    1.30
  -5   5   2    7.79    1.46
   5  -5  -1  115.21    5.84
  -5   5   1  118.16    6.04
   5  -5   0  118.54    6.47
  -5   5   0  120.53    6.49
   5  -5   1   11.97    1.40
  -5   5  -1    7.44    1.74
  -5   5  -1    9.68    1.43
   5  -5   2    7.75    1.29
  -5   5  -2    8.48    1.42
  -5   5  -2    7.25    1.66
   5  -5   3    9.63    1.76
  -5   5  -3    9.09    1.26
   5  -5   4    9.45    1.13
  -5   5  -4    7.83    1.25
  -5   5  -4    7.10    1.61
   5  -5   5    5.13    1.13
  -5   5  -5    5.15    1.16
  -5   5  -5    1.70    1.67
   5  -5   6    4.03    1.74
  -5   5  -6    1.14    1.03
  -5   5  -6    1.91    1.52
   5  -5   7    1.13    1.03
  -5   5  -7    1.73    1.61
  -5   5  -7   -0.48    1.12
   5  -5   8    0.04    1.29
  -5   5  -8    1.36    1.28
  -5   5  -8    3.83    1.70
   5  -5   9    1.93    1.20
  -5   5  -9    0.63    1.28
  -5   5  -9    0.16    1.38
   5  -5  10    0.92    1.27
  -5   5 -10   -0.16    1.40
  -5   5 -10    3.26    1.63
  -5   5 -11    2.24    1.69
  -5   5 -11   -0.22    1.90
   5  -5  12   -2.64    1.38
  -5   5 -12   -0.26    1.80
  -5   5 -12    0.68    2.24
   5  -5  13    1.52    1.38
  -5   5 -13    0.82    1.57
  -5   5 -13    0.56    2.45
   5  -5  14   -2.18    1.88
  -5   5 -14    1.33    2.23
  -5   5 -14   -0.07    2.58
   5  -3 -15    2.28    2.66
   5  -3 -14    1.30    2.59
  -5   3  14    1.71    2.98
   5  -3 -13    1.94    2.47
  -5   3  13   -0.01    3.71
   5  -3 -12   -2.04    3.02
  -5   3  12    0.56    2.80
   5  -3 -11    4.81    2.90
  -5   3  11    1.03    2.25
   5  -3 -10   -2.33    2.48
  -5   3  10    1.88    1.93
   5  -3  -9    1.14    1.71
  -5   3   9   -0.59    1.81
   5  -3  -8    6.03    1.82
  -5   3   8   10.52    1.93
   5  -3  -7   11.47    1.77
  -5   3   7    9.65    2.01
   5  -3  -6   23.89    2.37
  -5   3   6   33.44    2.47
   5  -3  -5   17.83    1.82
  -5   3   5   20.57    1.95
   5  -3  -4    5.64    1.21
  -5   3   4    5.10    1.33
   5  -3  -3   37.80    2.39
  -5   3   3   38.56    2.57
   5  -3  -2   69.09    3.62
  -5   3   2   74.66    3.93
   5  -3  -1  145.10    7.21
  -5   3   1  105.57    6.75
  -5   3   0  183.76   10.30
   5  -3   1   43.31    2.48
  -5   3  -1   47.28    2.62
   5  -3   2   82.26    5.14
  -5   3  -2   80.04    3.99
  -5   3  -3    7.79    1.07
  -5   3  -3    6.93    1.27
   5  -3   4   19.12    1.61
  -5   3  -4   21.38    1.34
  -5   3  -4   17.71    1.90
   5  -3   5   28.86    2.28
  -5   3  -5   34.87    2.26
  -5   3  -5   31.77    2.31
   5  -3   6   25.66    2.53
  -5   3  -6   28.42    2.22
   5  -3   7    5.39    1.33
  -5   3  -7    3.15    1.40
  -5   3  -7    2.26    1.36
   5  -3   8    7.46    1.60
  -5   3  -8    8.24    1.65
  -5   3  -9    1.08    1.43
   5  -3  10   -1.82    1.12
  -5   3 -10    2.00    1.52
   5  -3  11    0.99    1.18
  -5   3 -11    0.97    1.91
   5  -3  12    0.74    1.20
  -5   3 -12    1.23    2.01
  -5   3 -13    0.80    1.77
   5  -3  14    0.27    1.21
  -5   3 -14    1.14    2.52
   5  -1 -15   -0.90    2.43
   5  -1 -14    4.36    2.51
  -5   1  14   -0.10    3.86
   5  -1 -13    2.38    2.43
  -5   1  13    4.86    3.62
   5  -1 -12    1.90    2.19
  -5   1  12    1.14    2.69
   5  -1 -11   -2.08    1.98
  -5   1  11    5.17    2.42
   5  -1 -10    1.15    1.79
  -5   1  10    2.34    1.86
   5  -1  -9    1.47    1.66
  -5   1   9    4.35    1.79
   5  -1  -8    0.97    1.41
  -5   1   8    0.32    1.50
   5  -1  -7    0.05    1.29
  -5   1   7   -2.05    1.40
   5  -1  -6    1.27    1.23
  -5   1   6    2.29    1.32
   5  -1  -5    2.59    1.13
  -5   1   5   -0.84    1.15
   5  -1  -4   -0.07    1.08
  -5   1   4   -1.70    1.09
   5  -1  -3    9.24    1.71
  -5   1   3    4.28    1.31
   5  -1  -2   13.25    1.67
  -5   1   2   11.92    1.74
   5  -1  -1   23.25    2.52
  -5   1   1   41.12    2.48
   5  -1   0   60.98    3.34
  -5   1   0   47.90    3.08
   5  -1   1   10.35    1.48
  -5   1  -1    8.02    1.37
   5  -1   2   12.13    1.47
  -5   1  -2   10.20    1.58
  -5   1  -2   11.92    1.42
  -5   1  -3    0.13    0.92
  -5   1  -3   -1.26    1.14
  -5   1  -4    0.88    0.81
  -5   1  -4    0.69    1.17
   5  -1   5    0.19    0.83
  -5   1  -5   -0.76    0.74
  -5   1  -5   -0.01    1.13
   5  -1   6   -0.74    1.07
  -5   1  -6   -0.41    1.02
   5  -1   7   -0.51    0.96
  -5   1  -7    1.39    1.74
   5  -1   8    0.46    1.07
  -5   1  -8   -0.62    1.92
   5  -1   9    1.68    0.90
  -5   1  -9    0.27    2.08
   5  -1  10    1.38    1.30
  -5   1 -10    0.46    2.22
   5  -1  11    0.59    1.33
  -5   1 -11    0.35    2.04
   5  -1  12   -1.99    1.41
  -5   1 -12   -0.15    2.21
   5  -1  13   -0.31    1.04
  -5   1 -13    2.23    1.95
  -5   1 -14    3.76    2.99
   5   1 -15    4.04    2.43
   5   1 -14    2.94    3.20
  -5  -1  14    4.53    3.70
   5   1 -13    1.80    3.03
  -5  -1  13    2.09    2.46
   5   1 -12    0.86    2.05
  -5  -1  12    0.60    2.16
   5   1 -11    0.88    1.88
  -5  -1  11    0.00    2.23
   5   1 -10   -1.24    2.28
  -5  -1  10    1.91    1.71
   5   1  -9   -2.11    2.14
  -5  -1   9   -1.60    1.66
   5   1  -8    0.45    1.38
  -5  -1   8    1.20    1.43
   5   1  -7   -1.93    1.27
  -5  -1   7   -1.92    1.31
   5   1  -6    0.64    1.06
  -5  -1   6   -2.54    1.61
   5   1  -5    1.21    1.01
  -5  -1   5    1.41    1.07
   5   1  -4   -0.38    0.99
  -5  -1   4    0.29    1.01
   5   1  -3    9.31    1.23
  -5  -1   3    3.47    1.16
   5   1  -2   15.81    1.72
  -5  -1   2   12.12    1.69
   5   1  -1   36.23    2.12
  -5  -1   1   19.03    2.13
   5   1   0   50.70    2.59
  -5  -1   0   32.64    2.37
   5   1   1    6.63    1.40
  -5  -1  -1    9.13    1.38
  -5  -1  -2   15.34    1.74
  -5  -1  -3    0.77    0.65
  -5  -1  -3   -0.31    1.62
  -5  -1  -4    0.30    0.45
   5   1   5    0.68    0.58
  -5  -1  -5    0.92    0.76
   5   1   6    1.37    1.00
  -5  -1  -6    2.15    1.14
   5   1   7    1.12    0.75
  -5  -1  -7   -0.93    1.41
   5   1   8    0.62    0.88
  -5  -1  -8   -1.29    1.47
   5   1   9   -0.10    0.97
  -5  -1  -9    0.57    1.58
   5   1  10   -0.54    1.06
  -5  -1 -10    1.94    2.36
   5   1  11    0.46    1.14
  -5  -1 -11    1.73    2.24
   5   1  12    0.37    1.19
  -5  -1 -12    1.26    2.00
   5   1  13    2.12    1.23
  -5  -1 -13   -1.41    2.16
  -5  -1 -14    3.43    3.29
   5   3 -15    3.26    2.17
   5   3 -14    4.12    2.09
  -5  -3  14   -2.44    2.37
   5   3 -13    2.05    2.16
  -5  -3  13    3.61    2.34
   5   3 -12    0.52    1.94
  -5  -3  12    1.93    2.72
   5   3 -11    6.45    1.97
  -5  -3  11    0.15    3.10
   5   3 -10    2.04    1.61
  -5  -3  10   -0.52    2.19
   5   3  -9    3.39    2.02
  -5  -3   9   -0.33    2.07
   5   3  -8    5.89    2.19
  -5  -3   8   10.62    1.67
   5   3  -7   17.06    1.72
  -5  -3   7   17.73    2.46
   5   3  -6   37.06    2.76
  -5  -3   6   43.84    2.72
   5   3  -5   20.26    1.71
  -5  -3   5   22.66    1.66
   5   3  -4    6.36    1.17
  -5  -3   4    9.76    1.20
   5   3  -3   68.15    4.36
  -5  -3   3   58.39    4.13
   5   3  -2   86.80    4.99
  -5  -3   2   80.21    4.18
   5   3  -1  110.75    4.82
  -5  -3   1  113.09    5.43
   5   3   0  129.18    6.38
  -5  -3   0  144.06    6.55
  -5  -3  -1   65.77    3.85
  -5  -3  -2   67.55    3.94
  -5  -3  -3    5.82    0.53
  -5  -3  -5   17.80    2.09
   5   3   6   18.67    0.96
  -5  -3  -6   20.43    2.00
   5   3   7    6.47    0.87
  -5  -3  -7    4.99    1.66
   5   3   8    7.20    0.89
  -5  -3  -8    9.81    1.99
   5   3   9    2.33    1.01
  -5  -3  -9   -2.12    1.80
   5   3  10    0.40    0.92
  -5  -3 -10    3.68    1.95
   5   3  11    1.11    1.00
  -5  -3 -11    3.84    3.29
   5   3  12    1.42    1.05
  -5  -3 -12    1.94    2.20
   5   3  13    1.17    1.08
  -5  -3 -13    1.36    2.34
  -5  -3 -14   -0.68    3.33
   5   5 -14   -0.11    2.56
  -5  -5  14    3.10    2.87
   5   5 -13   -0.72    2.50
  -5  -5  13    2.05    2.67
   5   5 -12    1.92    2.37
  -5  -5  12    0.97    2.48
   5   5 -11   -3.51    2.19
  -5  -5  11    1.91    2.63
   5   5 -10    0.49    1.49
  -5  -5  10    1.92    1.99
   5   5  -9   -0.78    1.62
  -5  -5   9    1.20    1.83
   5   5  -8    3.22    1.49
  -5  -5   8   -1.37    1.21
   5   5  -7   -1.20    1.50
  -5  -5   7    0.64    1.47
   5   5  -6    7.41    1.55
  -5  -5   6    5.48    1.58
   5   5  -5    7.06    1.07
  -5  -5   5    5.45    1.41
   5   5  -4   10.69    1.66
  -5  -5   4    9.68    1.09
   5   5  -3    8.73    1.42
  -5  -5   3    8.30    1.62
   5   5  -2    8.71    1.32
  -5  -5   2   11.03    1.71
   5   5  -1   97.52    3.73
  -5  -5   1   72.48    3.64
  -5  -5   0  142.94    7.20
  -5  -5  -1   12.31    1.55
  -5  -5  -2    3.23    1.12
  -5  -5  -4    4.71    1.61
  -5  -5  -5    3.06    1.47
  -5  -5  -6    2.89    1.41
  -5  -5  -7   -2.54    1.62
   5   5   8    1.03    0.61
  -5  -5  -8    6.82    1.81
   5   5   9    0.64    0.76
  -5  -5  -9    0.53    1.84
   5   5  10    0.63    0.74
  -5  -5 -10    0.01    2.34
   5   5  11    0.10    0.81
  -5  -5 -11   -2.88    2.54
   5   5  12    0.93    0.88
  -5  -5 -12    2.13    2.34
   5   5  13    1.48    0.92
  -5  -5 -13    0.02    2.52
  -5  -5 -14    1.54    3.68
   5   7 -14    5.38    2.23
  -5  -7  14    3.10    2.17
   5   7 -13    1.88    2.16
  -5  -7  13    2.82    1.83
   5   7 -12   -1.46    1.95
  -5  -7  12    1.61    2.18
   5   7 -11   -1.63    1.86
  -5  -7  11   -0.94    2.02
   5   7 -10   -1.23    1.22
  -5  -7  10    1.37    1.52
   5   7  -9    0.70    1.68
  -5  -7   9    0.33    1.66
   5   7  -8   -0.51    1.46
  -5  -7   8    0.74    1.46
   5   7  -7    0.21    1.19
  -5  -7   7    0.68    1.30
   5   7  -6    0.09    1.21
  -5  -7   6   -1.56    1.18
   5   7  -5    1.02    0.81
  -5  -7   5   -0.25    1.06
   5   7  -4    7.77    0.83
  -5  -7   4    5.71    1.18
   5   7  -3    1.87    0.67
  -5  -7   3    1.91    1.16
   5   7  -2    1.67    0.80
  -5  -7   2    2.73    0.84
  -5  -7   1    8.77    1.34
  -5  -7   0   10.26    1.65
  -5  -7  -1    2.82    1.00
  -5  -7  -2    1.13    0.37
  -5  -7  -3    0.67    0.91
  -5  -7  -4    1.93    1.51
  -5  -7  -5    0.48    1.39
  -5  -7  -6   -0.11    1.31
  -5  -7  -7    2.07    1.36
  -5  -7  -8    1.54    1.91
  -5  -7  -9   -2.87    2.12
  -5  -7 -10   -1.58    2.56
   5   7  11    0.66    0.80
  -5  -7 -11   -0.87    2.74
   5   7  12    0.70    0.89
  -5  -7 -12   -3.95    3.37
   5   7  13    1.97    0.83
  -5  -7 -13    3.88    2.81
  -5  -7 -14    1.53    2.89
   5   9 -14    1.03    1.87
  -5  -9  14   -0.56    3.09
  -5  -9  14    2.41    2.43
   5   9 -13   -1.50    2.08
  -5  -9  13   -0.04    2.90
  -5  -9  13    3.01    1.65
   5   9 -12    1.60    1.98
  -5  -9  12   -0.04    1.46
   5   9 -11    4.17    1.57
   5   9 -11    5.39    1.99
  -5  -9  11    6.03    1.93
   5   9 -10    0.95    1.63
  -5  -9  10    1.54    1.80
   5   9  -9    8.58    1.60
  -5  -9   9    1.30    1.62
   5   9  -8   26.33    2.32
  -5  -9   8   25.06    2.41
   5   9  -7   36.74    2.55
  -5  -9   7   43.36    2.88
   5   9  -6   58.94    2.96
  -5  -9   6   68.94    3.52
   5   9  -5   56.76    2.45
  -5  -9   5   60.92    2.86
   5   9  -4   40.92    2.01
  -5  -9   4   46.05    2.37
   5   9  -3  152.58    6.51
  -5  -9   3  120.99    5.08
  -5  -9   2  162.70    6.62
  -5  -9   1  190.10    9.54
  -5  -9   0  166.00    8.36
  -5  -9  -1  135.80    5.17
  -5  -9  -2   90.85    2.62
  -5  -9  -2  101.24    4.21
  -5  -9  -3   42.46    3.44
  -5  -9  -4   30.24    2.87
  -5  -9  -5   39.95    3.24
  -5  -9  -6   24.21    2.63
  -5  -9  -7    5.23    1.76
  -5  -9  -8    6.05    2.35
  -5  -9  -9    1.51    2.54
  -5  -9 -10    0.84    2.72
  -5  -9 -11   -0.61    2.55
  -5  -9 -12    0.49    2.65
  -5  -9 -13    3.83    3.08
   5  11 -14    0.92    0.62
  -5 -11  14   -1.61    5.07
   5  11 -13   -1.51    1.66
  -5 -11  13    5.11    3.52
  -5 -11  13    3.28    1.47
   5  11 -12    2.31    1.60
  -5 -11  12    0.35    3.00
  -5 -11  12    1.36    1.27
   5  11 -11   -0.84    1.40
  -5 -11  11    3.27    2.74
  -5 -11  11    3.42    1.57
   5  11 -10    0.88    1.17
  -5 -11  10    0.70    1.26
   5  11  -9    0.76    0.89
  -5 -11   9    1.23    1.35
   5  11  -8    1.36    0.72
  -5 -11   8    0.05    0.77
   5  11  -7    2.36    0.89
  -5 -11   7    1.42    1.12
   5  11  -6    6.17    0.78
  -5 -11   6    5.31    1.04
   5  11  -5    5.03    0.81
  -5 -11   5    4.44    0.90
  -5 -11   4    4.20    0.94
  -5 -11   3    1.44    0.91
  -5 -11   2    0.48    0.87
  -5 -11   2    0.06    0.81
  -5 -11   1   12.25    1.44
  -5 -11   1   11.21    1.18
  -5 -11   0   15.32    1.45
  -5 -11   0   17.22    1.37
  -5 -11  -1    0.56    0.77
  -5 -11  -1    0.10    1.17
  -5 -11  -2    0.85    1.34
  -5 -11  -3    1.25    1.44
  -5 -11  -4   19.54    2.92
  -5 -11  -5    0.30    1.52
  -5 -11  -6   11.51    2.09
  -5 -11  -7    2.66    1.72
  -5 -11  -8   -2.50    1.83
  -5 -11  -9   -0.22    1.91
  -5 -11 -10    2.13    3.03
  -5 -11 -11   -0.70    3.59
  -5 -11 -12   -3.93    3.07
  -5 -11 -13    2.88    4.32
  -5 -13  13   -0.42    3.90
   5  13 -12    0.63    0.66
  -5 -13  12    3.84    3.58
  -5 -13  12    0.17    1.30
   5  13 -11    0.56    0.64
  -5 -13  11    5.99    3.27
  -5 -13  11   -0.11    1.15
   5  13 -10    0.19    0.67
  -5 -13  10    1.07    2.92
  -5 -13  10   -1.59    1.03
   5  13  -9    1.36    0.71
  -5 -13   9    7.00    2.77
   5  13  -8    2.27    0.86
  -5 -13   8    3.90    2.53
  -5 -13   8    2.01    0.81
   5  13  -7    3.35    0.72
  -5 -13   7    6.09    2.12
  -5 -13   7    4.45    1.16
  -5 -13   6    6.60    2.20
  -5 -13   6    7.93    0.93
  -5 -13   5    5.19    1.84
  -5 -13   5    8.21    1.03
  -5 -13   4    3.09    1.58
  -5 -13   4    7.38    0.85
  -5 -13   3   13.68    1.92
  -5 -13   3   22.71    1.35
  -5 -13   2   23.68    2.03
  -5 -13   2   26.74    1.22
  -5 -13   1   27.42    1.95
  -5 -13   1   28.56    1.50
  -5 -13   0   25.76    1.51
  -5 -13   0   32.42    1.97
  -5 -13  -1   24.26    1.57
  -5 -13  -1   26.50    2.57
  -5 -13  -2   19.12    1.08
  -5 -13  -2   19.74    1.99
  -5 -13  -3    1.13    1.41
  -5 -13  -4    3.04    1.57
  -5 -13  -5    3.07    1.70
  -5 -13  -6    2.93    1.86
  -5 -13  -7   -0.87    1.82
  -5 -13  -8    4.36    2.32
  -5 -13  -9    2.61    2.21
  -5 -13 -10    3.68    2.00
  -5 -13 -11   -0.40    2.73
  -5 -13 -12    3.95    3.23
  -5 -13 -13    3.11    3.37
  -5 -15  13    1.77    4.65
  -5 -15  12    3.43    4.65
  -5 -15  11    7.25    4.66
  -5 -15  10   -1.61    3.45
  -5 -15   9    8.17    3.61
  -5 -15   8   11.66    3.48
  -5 -15   7   10.35    2.97
  -5 -15   6   12.64    2.73
  -5 -15   6   14.00    1.05
  -5 -15   5    8.22    2.15
  -5 -15   5    9.16    0.94
  -5 -15   4    2.48    1.74
  -5 -15   4    2.64    0.95
  -5 -15   3   10.30    2.02
  -5 -15   3   14.62    1.30
  -5 -15   3   15.54    1.43
  -5 -15   2   30.75    2.92
  -5 -15   2   20.03    1.31
  -5 -15   1   28.59    1.89
  -5 -15   1   24.70    2.13
  -5 -15   1   30.99    2.07
  -5 -15   0   30.04    2.28
  -5 -15   0   32.24    1.90
  -5 -15  -1   25.33    1.42
  -5 -15  -1   24.04    2.44
  -5 -15  -2   15.40    1.39
  -5 -15  -2   16.21    1.82
  -5 -15  -3    3.35    2.00
  -5 -15  -4    5.02    1.72
  -5 -15  -5    5.64    2.60
  -5 -15  -6    7.23    2.15
  -5 -15  -7    4.16    2.42
  -5 -15  -8    3.44    2.49
  -5 -15  -9    0.87    2.05
  -5 -15 -10    4.42    2.29
  -5 -15 -11    4.60    2.43
  -5 -15 -12    0.72    3.12
  -5 -17  12    0.37    4.48
  -5 -17  11    9.75    5.00
  -5 -17  10   -3.87    4.15
  -5 -17   9    0.61    3.51
  -5 -17   8   11.80    3.96
  -5 -17   7    6.16    3.12
  -5 -17   6   10.86    2.89
  -5 -17   5    0.76    2.20
  -5 -17   5    5.27    0.73
  -5 -17   5    5.69    0.72
  -5 -17   4    7.50    2.01
  -5 -17   4    3.65    0.92
  -5 -17   4    5.93    0.82
  -5 -17   3   10.86    2.05
  -5 -17   3    5.91    1.23
  -5 -17   3   11.32    1.01
  -5 -17   2   19.29    2.57
  -5 -17   2   14.88    1.48
  -5 -17   1   26.67    2.01
  -5 -17   1   19.71    1.65
  -5 -17   1   27.79    1.66
  -5 -17   0   30.66    2.44
  -5 -17   0   22.97    2.36
  -5 -17  -1   15.75    1.54
  -5 -17  -1    8.20    1.51
  -5 -17  -2   11.20    1.23
  -5 -17  -2    8.86    1.70
  -5 -17  -3    4.00    1.63
  -5 -17  -4    5.65    1.86
  -5 -17  -5    8.02    2.45
  -5 -17  -6    5.71    2.52
  -5 -17  -7    0.66    2.42
  -5 -17  -8    5.43    2.37
  -5 -17  -9    0.53    2.21
  -5 -17 -10    3.56    2.57
  -5 -17 -11   -1.70    2.60
  -5 -17 -12    3.85    2.77
  -5 -19  12    5.92    5.37
  -5 -19  11    2.68    4.68
  -5 -19  10   -0.65    3.98
  -5 -19   9    0.26    3.55
  -5 -19   8    2.78    3.22
  -5 -19   7    7.63    4.20
  -5 -19   6    4.23    2.56
  -5 -19   5    3.95    2.12
  -5 -19   5    1.32    0.75
  -5 -19   4    2.29    1.67
  -5 -19   4    1.59    1.37
  -5 -19   4    0.93    0.77
  -5 -19   3    2.60    1.59
  -5 -19   3    1.52    1.22
  -5 -19   3    0.78    0.65
  -5 -19   2    6.51    2.19
  -5 -19   2    4.60    1.56
  -5 -19   1    2.66    1.41
  -5 -19   1    2.71    1.59
  -5 -19   0    1.14    1.19
  -5 -19   0    3.27    1.67
  -5 -19  -1   -1.06    1.60
  -5 -19  -1    2.83    1.30
  -5 -19  -2    1.00    0.82
  -5 -19  -2    2.87    1.44
  -5 -19  -3    1.94    1.85
  -5 -19  -4    1.64    2.05
  -5 -19  -5    3.05    2.33
  -5 -19  -6    3.18    2.13
  -5 -19  -7   -0.34    2.14
  -5 -19  -8    2.72    2.39
  -5 -19  -9   -1.17    2.50
  -5 -19 -10    1.18    2.63
  -5 -19 -11   -0.08    2.70
  -5 -21  11   -0.47    4.06
  -5 -21  10   -1.48    3.77
  -5 -21   9    0.96    3.25
  -5 -21   8   -3.49    2.99
  -5 -21   7    3.87    2.65
  -5 -21   6    3.74    2.34
  -5 -21   5    2.38    2.06
  -5 -21   4    3.40    1.82
  -5 -21   4    1.14    1.20
  -5 -21   4    0.84    0.59
  -5 -21   3    0.12    1.75
  -5 -21   3    2.07    1.28
  -5 -21   3    1.03    0.90
  -5 -21   2    0.59    1.73
  -5 -21   2    1.78    1.85
  -5 -21   2    2.18    1.24
  -5 -21   1    5.92    2.31
  -5 -21   0    3.01    1.33
  -5 -21   0    1.98    2.34
  -5 -21  -1    1.09    1.22
  -5 -21  -1    9.18    2.43
  -5 -21  -2    3.43    1.29
  -5 -21  -2    3.00    1.94
  -5 -21  -3    1.90    2.07
  -5 -21  -4    0.28    1.82
  -5 -21  -5    1.30    2.01
  -5 -21  -6   -4.27    2.34
  -5 -21  -7    1.01    2.28
  -5 -21  -8    0.91    2.48
  -5 -21  -9    2.24    2.74
  -5 -21 -10    6.23    3.19
  -5 -21 -11    1.32    3.05
  -5 -23  10    3.05    4.07
  -5 -23   9    1.66    3.45
  -5 -23   7    6.92    3.07
  -5 -23   6    3.97    2.61
  -5 -23   4    6.39    2.31
  -5 -23   4    4.18    0.58
  -5 -23   3    9.08    2.46
  -5 -23   3    8.15    1.69
  -5 -23   3    7.18    1.23
  -5 -23   2   18.86    2.48
  -5 -23   2   14.35    1.90
  -5 -23   1   13.74    2.89
  -5 -23   1    7.70    2.53
  -5 -23   0    9.46    3.37
  -5 -23   0   16.52    3.04
  -5 -23  -1   15.99    2.40
  -5 -23  -1   12.33    3.20
  -5 -23  -2    4.84    1.31
  -5 -23  -2    6.90    2.79
  -5 -23  -3    7.53    3.12
  -5 -23  -4    4.77    2.34
  -5 -23  -5    4.49    2.44
  -5 -23  -6    3.63    2.58
  -5 -23  -7    5.85    2.84
  -5 -23  -8   -1.85    2.78
  -5 -23  -9    2.17    2.95
  -5 -23 -10   -3.60    3.27
  -5 -25   9    4.63    3.75
  -5 -25   8    1.58    4.17
  -5 -25   7    3.20    2.88
  -5 -25   6    0.95    2.53
  -5 -25   5   10.48    2.99
  -5 -25   4    2.70    2.28
  -5 -25   4    0.68    0.87
  -5 -25   3   -0.02    1.05
  -5 -25   2    4.80    2.88
  -5 -25   2    2.66    1.90
  -5 -25   2    4.49    1.46
  -5 -25   1    3.61    2.58
  -5 -25   1    9.39    2.47
  -5 -25   0    0.52    1.79
  -5 -25   0    9.53    2.59
  -5 -25  -1   -1.44    1.37
  -5 -25  -1    5.82    2.57
  -5 -25  -2    1.17    2.12
  -5 -25  -3    1.27    2.28
  -5 -25  -4    3.84    2.51
  -5 -25  -5    1.78    3.38
  -5 -25  -6    1.35    2.58
  -5 -25  -7   -1.88    2.75
  -5 -25  -8    7.85    3.29
  -5 -25  -9   -3.42    3.17
  -5 -27   8    5.48    3.66
  -5 -27   7    4.67    3.25
  -5 -27   6    3.42    2.99
  -5 -27   5    4.79    2.88
  -5 -27   4    2.67    2.54
  -5 -27   3    4.74    3.14
  -5 -27   3    3.12    1.32
  -5 -27   3   -0.03    1.12
  -5 -27   2    1.33    2.72
  -5 -27   2    0.31    1.77
  -5 -27   2    2.71    1.43
  -5 -27   1    6.20    2.47
  -5 -27   1    0.73    2.33
  -5 -27   0    6.01    2.00
  -5 -27   0    5.16    2.86
  -5 -27  -1   -0.03    1.55
  -5 -27  -1    4.11    2.10
  -5 -27  -2    4.44    2.42
  -5 -27  -3    3.03    2.56
  -5 -27  -4   -0.45    2.54
  -5 -27  -5    7.90    3.09
  -5 -27  -6    0.34    2.69
  -5 -27  -7    3.72    3.01
  -5 -29   5    2.83    2.87
  -5 -29   4    2.32    2.61
  -5 -29   3    2.19    3.14
  -5 -29   3    3.88    1.39
  -5 -29   3    1.07    1.14
  -5 -29   2    7.18    2.92
  -5 -29   2    5.46    1.83
  -5 -29   2    0.71    1.55
  -5 -29   1    2.78    3.07
  -5 -29   1    3.89    2.28
  -5 -29   1    2.35    1.30
  -5 -29   0    7.72    2.13
  -5 -29   0    3.38    2.13
  -5 -29  -1    1.73    1.78
  -5 -29  -1    0.22    2.21
  -5 -29  -2    1.81    2.46
  -5 -29  -3    5.08    2.89
  -5 -29  -4    1.98    2.88
  -5 -29  -5    1.70    2.96
  -5 -29  -6    6.36    3.37
  -5 -31   4    2.56    3.54
  -5 -31   3    6.75    3.56
  -5 -31   2    4.44    2.55
  -5 -31   2    0.39    1.83
  -5 -31   2    1.34    1.53
  -5 -31   1    2.15    2.21
  -5 -31   1   -2.16    2.09
  -5 -31   1    0.31    1.67
  -5 -31   0   -0.47    2.07
  -5 -31   0    1.77    1.90
  -5 -31  -1   -2.61    3.06
  -5 -31  -2    2.35    3.49
  -5 -31  -3    3.50    2.93
  -5 -31  -4   -1.55    3.01
   6 -30  -5   -1.22    3.15
  -6  30   5   -0.39    5.17
   6 -30  -4    0.01    2.88
  -6  30   4    8.67    3.76
   6 -30  -3   -1.80    2.55
  -6  30   3    1.62    3.27
   6 -30  -2   10.68    3.95
  -6  30   2    3.55    2.86
   6 -30  -1    6.76    3.59
  -6  30   1    1.42    3.40
   6 -30   0    8.10    3.22
  -6  30   0    3.76    3.05
   6 -30   1    3.80    2.03
  -6  30  -1    2.46    2.38
  -6  30  -1    0.65    2.17
   6 -30   2    3.00    1.97
  -6  30  -2    0.52    2.56
  -6  30  -2    1.03    1.27
   6 -30   3    1.56    1.14
  -6  30  -3   -0.73    3.13
  -6  30  -3    0.50    0.66
  -6  30  -4    0.45    0.57
   6 -28  -7    5.83    3.84
  -6  28   7    6.98    6.23
   6 -28  -6   -0.75    3.29
  -6  28   6    5.66    4.02
   6 -28  -5    0.49    4.11
  -6  28   5    1.68    3.20
   6 -28  -4   -1.80    2.63
  -6  28   4   -0.15    2.90
   6 -28  -3    4.06    3.53
  -6  28   3    3.64    3.95
   6 -28  -2    7.22    3.95
  -6  28   2    6.56    2.97
   6 -28  -1   11.47    3.46
  -6  28   1   -2.18    2.45
   6 -28   0    9.18    3.14
  -6  28   0    2.63    2.35
   6 -28   1    3.53    2.67
  -6  28  -1   -0.88    2.26
  -6  28  -1    0.85    2.52
   6 -28   2    3.75    2.13
  -6  28  -2   -0.99    2.67
  -6  28  -2    3.31    2.04
   6 -28   3    0.35    1.29
  -6  28  -3   -6.08    3.10
  -6  28  -3    0.47    1.19
   6 -28   4    2.85    1.43
  -6  28  -4    1.40    3.31
  -6  28  -4    0.25    0.64
   6 -28   5    2.21    1.28
  -6  28  -5   -1.75    3.57
  -6  28  -5    0.59    0.44
   6 -26  -9    1.39    3.57
  -6  26   9    1.71    1.03
  -6  26   9   -1.12    4.16
   6 -26  -8    0.88    3.35
  -6  26   8   -3.56    4.02
   6 -26  -7    2.97    3.46
  -6  26   7    6.47    4.20
   6 -26  -6    2.66    3.08
  -6  26   6    1.23    0.65
  -6  26   6   -0.53    3.17
   6 -26  -5    2.12    2.87
  -6  26   5   -5.84    3.02
   6 -26  -4    0.86    2.72
  -6  26   4    3.71    2.90
   6 -26  -3    9.54    3.45
  -6  26   3    2.93    2.94
   6 -26  -2    4.19    2.82
  -6  26   2   10.09    1.65
  -6  26   2    5.12    3.93
   6 -26  -1    2.42    2.50
  -6  26   1    3.35    2.49
   6 -26   0    4.01    2.12
  -6  26   0    0.30    2.20
   6 -26   1    3.84    2.79
  -6  26  -1    5.23    2.72
   6 -26   2    1.90    1.60
  -6  26  -2    4.70    2.64
  -6  26  -2    1.95    2.26
   6 -26   3    0.93    1.44
  -6  26  -3    2.58    2.75
  -6  26  -3    2.88    1.81
   6 -26   4    2.44    1.00
  -6  26  -4    9.08    3.43
   6 -26   5    2.01    1.32
  -6  26  -5    1.00    3.41
  -6  26  -5   -0.03    0.58
  -6  26  -6    2.56    3.60
  -6  26  -6    0.00    1.26
   6 -26   7    2.12    4.11
  -6  26  -7   -4.24    3.42
   6 -24 -10    2.25    3.59
  -6  24  10    1.48    4.03
   6 -24  -9    1.07    3.30
  -6  24   9    1.30    1.62
  -6  24   9   -0.70    3.86
   6 -24  -8    0.56    3.08
  -6  24   8    0.77    0.95
  -6  24   8    4.63    3.75
   6 -24  -7    1.85    2.96
  -6  24   7   -5.11    3.08
   6 -24  -6    0.41    2.90
  -6  24   6    0.99    0.71
  -6  24   6    3.57    3.01
   6 -24  -5   -2.96    2.78
  -6  24   5   -2.82    3.04
   6 -24  -4    9.70    2.74
  -6  24   4    4.20    1.08
  -6  24   4    4.53    4.01
   6 -24  -3    4.48    2.27
  -6  24   3   -0.28    2.69
   6 -24  -2    1.01    2.22
  -6  24   2    4.91    2.48
   6 -24  -1    2.75    2.53
   6 -24  -1    2.84    2.54
  -6  24   1   17.29    3.48
   6 -24   0    4.91    2.20
  -6  24   0   10.04    2.34
  -6  24   0    3.64    2.28
   6 -24   1    2.96    2.79
  -6  24  -1    8.74    2.67
   6 -24   2    0.26    1.58
  -6  24  -2    5.07    2.48
  -6  24  -2    3.46    2.18
   6 -24   3    0.91    1.51
  -6  24  -3    5.40    2.72
  -6  24  -3    1.45    1.88
   6 -24   4    0.75    1.10
  -6  24  -4   -0.30    3.14
  -6  24  -4    1.29    1.53
   6 -24   5    1.60    1.64
  -6  24  -5    2.07    3.28
  -6  24  -5    0.27    1.11
   6 -24   6    3.73    3.58
  -6  24  -6   -1.66    3.39
  -6  24  -6    1.00    0.52
   6 -24   7    3.08    3.41
  -6  24  -7   -1.92    3.20
  -6  24  -7    0.29    0.25
   6 -24   8   -4.04    3.55
  -6  24  -8    1.37    3.10
   6 -22 -11   -1.67    3.48
  -6  22  11    2.35    3.73
   6 -22 -10   -3.95    3.23
  -6  22  10    4.56    3.58
   6 -22  -9   10.44    3.59
  -6  22   9    6.14    4.15
   6 -22  -8   -2.36    2.80
  -6  22   8    1.93    2.90
   6 -22  -7    2.82    2.73
  -6  22   7   -0.71    2.87
   6 -22  -6    7.24    2.65
  -6  22   6    2.56    0.90
  -6  22   6    0.50    2.94
   6 -22  -5    2.60    2.44
  -6  22   5   -1.13    1.13
  -6  22   5   -0.24    2.60
   6 -22  -4    0.60    3.32
  -6  22   4    5.02    2.64
   6 -22  -3   -0.73    2.27
  -6  22   3    8.31    1.36
  -6  22   3    6.20    3.60
   6 -22  -2   -2.91    1.94
  -6  22   2    1.42    2.18
   6 -22  -1    3.47    2.35
  -6  22   1   16.04    3.29
   6 -22   0    0.79    1.84
  -6  22   0    1.85    1.90
   6 -22   1   -0.59    2.50
  -6  22  -1    7.80    2.36
  -6  22  -1    2.94    2.35
   6 -22   2    0.93    1.55
  -6  22  -2    5.05    2.46
  -6  22  -2    3.94    1.52
   6 -22   3   -1.31    1.48
  -6  22  -3    0.36    2.40
  -6  22  -3    2.93    1.78
   6 -22   4    2.10    1.20
  -6  22  -4    0.06    2.62
  -6  22  -4    1.59    1.66
   6 -22   5    0.86    3.35
   6 -22   5    3.63    1.30
  -6  22  -5    3.05    3.19
  -6  22  -5    1.75    1.49
   6 -22   6   -1.92    3.36
  -6  22  -6    2.68    3.21
  -6  22  -6    2.79    1.24
   6 -22   7   -3.20    3.18
  -6  22  -7    3.15    3.06
  -6  22  -7    1.13    0.69
   6 -22   8    5.06    3.25
  -6  22  -8   -1.47    2.89
   6 -22   9    3.34    3.43
   6 -20 -11    7.36    3.57
  -6  20  11    0.99    3.78
   6 -20 -10   -2.05    3.04
  -6  20  10    0.67    3.31
   6 -20  -9    2.30    2.81
  -6  20   9    0.41    2.75
   6 -20  -8    2.99    2.67
  -6  20   8    1.09    2.75
   6 -20  -7    3.13    2.53
  -6  20   7    3.32    2.81
   6 -20  -6   -1.92    2.34
  -6  20   6   -0.80    2.56
   6 -20  -5   -0.44    2.21
  -6  20   5    1.34    0.93
  -6  20   5    0.99    2.42
   6 -20  -4    2.13    2.13
  -6  20   4    2.17    0.96
  -6  20   4    2.08    2.35
   6 -20  -3    0.44    1.89
  -6  20   3    3.49    1.15
  -6  20   3    2.11    2.24
   6 -20  -2   -1.34    1.90
  -6  20   2    6.45    1.52
  -6  20   2    4.72    2.15
   6 -20  -1    1.44    2.03
  -6  20   1    6.23    2.68
   6 -20   0    5.82    1.95
  -6  20   0   12.58    2.09
  -6  20   0    4.70    2.00
   6 -20   1    2.07    2.32
  -6  20  -1    4.85    2.22
   6 -20   2    1.81    1.50
  -6  20  -2    2.45    2.37
  -6  20  -2    5.08    1.47
   6 -20   3    0.33    1.47
  -6  20  -3    0.53    2.33
  -6  20  -3    1.90    1.70
   6 -20   4    3.09    1.28
  -6  20  -4   -1.34    3.41
  -6  20  -4    2.21    1.59
   6 -20   5    0.55    2.97
   6 -20   5    2.62    1.05
  -6  20  -5    0.96    2.94
  -6  20  -5    2.50    1.47
   6 -20   6    2.85    2.87
  -6  20  -6   -1.16    2.98
  -6  20  -6    3.22    1.37
   6 -20   7   -3.44    2.78
  -6  20  -7    0.00    2.90
  -6  20  -7    2.09    1.49
   6 -20   8    4.26    2.86
  -6  20  -8    2.03    2.63
  -6  20  -8    0.82    0.91
  -6  20  -8    0.68    1.10
   6 -20   9    0.39    2.91
  -6  20  -9    1.17    0.63
  -6  20  -9   -0.09    0.28
   6 -20  10   -5.26    3.34
   6 -18 -12    4.12    3.62
  -6  18  12    3.94    3.79
   6 -18 -11    1.25    3.23
  -6  18  11    3.58    3.48
   6 -18 -10    1.50    2.78
  -6  18  10   -0.08    2.67
   6 -18  -9    2.73    2.64
  -6  18   9    2.14    2.66
   6 -18  -8    1.92    2.39
  -6  18   8   -0.87    2.51
   6 -18  -7   -1.54    2.23
  -6  18   7    2.23    2.41
   6 -18  -6    3.13    2.22
  -6  18   6    2.99    2.44
   6 -18  -5    4.74    2.14
  -6  18   5    5.35    2.40
   6 -18  -4    3.44    1.94
  -6  18   4    1.36    2.11
   6 -18  -3    1.26    1.99
  -6  18   3    6.37    1.19
  -6  18   3    6.52    2.11
   6 -18  -2    0.76    1.64
  -6  18   2    0.27    1.81
   6 -18  -1   16.66    2.45
  -6  18   1   20.47    2.26
  -6  18   1   10.74    2.45
   6 -18   0   13.06    2.20
  -6  18   0   25.04    2.96
  -6  18   0   12.53    2.19
   6 -18   1    3.25    2.35
  -6  18  -1   10.13    2.16
  -6  18  -1    5.17    2.15
   6 -18   2    6.35    2.11
  -6  18  -2    9.57    2.45
  -6  18  -2    5.31    1.95
   6 -18   3    2.72    1.16
  -6  18  -3    3.02    2.24
  -6  18  -3    1.29    1.60
   6 -18   4    6.55    1.53
  -6  18  -4    2.25    2.55
  -6  18  -4    5.25    1.20
   6 -18   5    0.44    2.76
   6 -18   5    6.13    1.26
  -6  18  -5    0.78    3.00
  -6  18  -5    6.31    1.45
   6 -18   6    2.44    2.66
  -6  18  -6   -0.63    2.83
  -6  18  -6    3.17    1.00
   6 -18   7   -0.30    2.58
  -6  18  -7    1.50    2.74
  -6  18  -7    0.83    0.63
   6 -18   8    1.68    2.73
  -6  18  -8    3.25    2.46
  -6  18  -8    1.76    0.91
   6 -18   9   -2.13    2.68
  -6  18  -9    0.39    0.89
  -6  18  -9    1.67    1.19
   6 -18  10    2.50    3.72
  -6  18 -10   -0.40    0.92
  -6  18 -10    1.21    1.38
   6 -18  11    6.59    3.90
  -6  18 -11    1.11    0.77
   6 -16 -13    4.14    3.46
  -6  16  13   -5.44    3.25
   6 -16 -12   -0.75    3.23
  -6  16  12   -1.99    3.45
   6 -16 -11   -0.56    2.91
  -6  16  11   -0.58    3.18
   6 -16 -10   -0.83    2.58
  -6  16  10    2.51    2.53
   6 -16  -9   -0.88    2.52
  -6  16   9   -3.26    2.51
   6 -16  -8    2.20    2.23
  -6  16   8   -0.69    3.26
   6 -16  -7    2.38    2.23
  -6  16   7    4.22    2.40
   6 -16  -6    6.28    2.22
  -6  16   6    7.30    2.49
   6 -16  -5    8.77    2.10
  -6  16   5    6.73    2.37
   6 -16  -4    5.58    2.01
  -6  16   4    8.75    2.12
   6 -16  -3    8.67    1.89
  -6  16   3    8.33    2.15
   6 -16  -2   17.85    2.32
  -6  16   2   19.51    1.94
  -6  16   2   28.04    3.55
   6 -16  -1   43.33    3.50
  -6  16   1   33.70    3.00
  -6  16   1   39.71    3.33
   6 -16   0   40.05    4.15
  -6  16   0   46.18    4.05
  -6  16   0   36.52    3.06
   6 -16   1   22.36    2.50
  -6  16  -1   27.03    2.85
  -6  16  -1   22.44    2.15
   6 -16   2   16.80    2.58
  -6  16  -2   18.21    1.85
   6 -16   3   14.15    1.97
  -6  16  -3    7.77    2.73
  -6  16  -3   12.99    1.50
   6 -16   4    3.71    2.85
   6 -16   4   13.38    1.82
  -6  16  -4    6.34    2.66
  -6  16  -4   12.38    1.65
   6 -16   5    2.27    2.59
   6 -16   5    9.88    1.44
  -6  16  -5    5.48    2.51
  -6  16  -5    7.69    1.17
   6 -16   6    2.70    2.55
  -6  16  -6    4.47    2.77
  -6  16  -6    6.71    1.18
   6 -16   7    2.91    2.53
  -6  16  -7    4.37    2.70
  -6  16  -7    4.15    1.37
   6 -16   8    0.57    2.36
  -6  16  -8    1.29    2.12
  -6  16  -8   -1.05    1.39
   6 -16   9    4.17    3.42
  -6  16  -9    1.25    1.19
  -6  16  -9    3.37    1.60
   6 -16  10   -1.77    2.55
  -6  16 -10    0.20    1.03
  -6  16 -10    3.50    1.76
   6 -16  11    2.98    2.63
  -6  16 -11    0.67    1.11
  -6  16 -11    3.24    1.89
  -6  16 -12    1.40    0.89
   6 -14 -13    1.91    3.24
  -6  14  13   -0.63    3.17
   6 -14 -12    2.89    3.00
  -6  14  12   -0.94    3.39
   6 -14 -11    1.44    2.72
  -6  14  11    0.61    2.64
   6 -14 -10   -4.83    2.55
  -6  14  10   -1.00    2.50
   6 -14  -9    4.62    2.30
  -6  14   9   -1.14    2.36
   6 -14  -8    3.13    2.21
  -6  14   8    5.95    2.43
   6 -14  -7    2.31    1.88
  -6  14   7   -0.72    2.87
   6 -14  -6    5.71    1.92
  -6  14   6    4.10    2.18
   6 -14  -5    1.17    1.61
  -6  14   5    1.28    1.81
   6 -14  -4    3.44    1.58
  -6  14   4    1.02    1.70
   6 -14  -3    2.87    1.53
  -6  14   3    8.85    2.42
   6 -14  -2    2.99    1.60
  -6  14   2    3.59    1.62
   6 -14  -1   15.06    2.15
  -6  14   1   19.97    2.00
  -6  14   1   11.83    2.00
   6 -14   0   13.11    1.88
  -6  14   0   18.95    2.24
  -6  14   0   13.99    1.85
   6 -14   1    6.19    1.59
  -6  14  -1    6.99    1.44
  -6  14  -2    5.33    2.01
  -6  14  -2    6.73    1.76
   6 -14   3    7.18    1.22
  -6  14  -3    2.88    2.12
  -6  14  -3    2.37    1.39
   6 -14   4    1.46    2.10
   6 -14   4    3.97    1.07
  -6  14  -4   -0.23    2.03
  -6  14  -4    5.41    1.28
   6 -14   5    1.68    2.08
  -6  14  -5    5.33    2.08
  -6  14  -5    4.69    1.32
   6 -14   6    1.14    2.09
  -6  14  -6    0.15    2.26
  -6  14  -6    4.53    1.40
   6 -14   7    2.42    2.19
  -6  14  -7    1.32    2.27
  -6  14  -7    3.36    1.70
   6 -14   8    0.72    2.93
  -6  14  -8    1.22    1.88
  -6  14  -8    1.42    1.12
  -6  14  -8    0.23    1.74
   6 -14   9   -4.32    2.18
  -6  14  -9    0.25    1.34
  -6  14  -9    1.35    1.73
   6 -14  10    1.71    2.30
  -6  14 -10    0.76    1.26
  -6  14 -10   -0.20    1.84
   6 -14  11   -1.93    2.66
  -6  14 -11    1.62    1.21
  -6  14 -11    1.20    1.92
   6 -14  12    3.24    2.67
  -6  14 -12   -1.44    1.03
  -6  14 -12   -1.56    2.04
   6 -12 -13    2.82    3.26
  -6  12  13    4.25    3.76
   6 -12 -12    1.60    2.92
  -6  12  12    1.57    3.33
   6 -12 -11    6.31    2.89
  -6  12  11    4.19    2.83
   6 -12 -10    3.84    2.31
  -6  12  10   -0.82    2.36
   6 -12  -9    0.77    2.12
  -6  12   9    2.03    2.29
   6 -12  -8    7.83    2.31
  -6  12   8    9.31    2.51
   6 -12  -7   11.03    2.15
  -6  12   7    9.69    2.44
  -6  12   7   11.83    2.50
   6 -12  -6   12.53    2.08
  -6  12   6   11.68    2.41
   6 -12  -5    6.01    1.75
  -6  12   5    9.25    1.91
   6 -12  -4    0.22    1.44
  -6  12   4    1.45    1.57
   6 -12  -3   12.45    1.90
  -6  12   3   21.07    2.18
   6 -12  -2   33.27    2.66
  -6  12   2   26.52    2.65
   6 -12  -1   50.53    3.36
  -6  12   1   44.73    3.36
   6 -12   0   51.16    3.53
  -6  12   0   48.34    3.66
  -6  12   0   49.62    4.34
   6 -12   1   45.11    3.11
  -6  12  -1   48.73    3.86
  -6  12  -1   42.52    2.93
   6 -12   2   32.96    2.83
  -6  12  -2   26.83    2.86
  -6  12  -2   29.16    1.93
   6 -12   3    5.91    1.61
  -6  12  -3    3.84    2.03
  -6  12  -3    7.37    1.18
   6 -12   4   11.44    2.29
   6 -12   4   14.52    1.83
  -6  12  -4    3.56    3.14
  -6  12  -4   14.64    1.64
   6 -12   5   13.64    2.34
  -6  12  -5   12.83    2.40
   6 -12   6    8.21    2.36
  -6  12  -6   11.02    2.61
  -6  12  -6   18.52    2.23
   6 -12   7    4.86    2.29
  -6  12  -7    6.65    2.29
  -6  12  -7   12.52    2.13
   6 -12   8    1.90    2.07
  -6  12  -8    2.58    1.58
  -6  12  -8    3.68    1.74
  -6  12  -8    4.49    1.39
   6 -12   9    3.33    1.97
  -6  12  -9    1.09    1.53
  -6  12  -9   -1.17    1.58
   6 -12  10    1.69    2.40
  -6  12 -10    1.23    1.55
  -6  12 -10    3.11    1.71
   6 -12  11    1.26    2.40
  -6  12 -11   -0.14    1.49
  -6  12 -11    2.46    1.81
   6 -12  12    2.52    2.49
  -6  12 -12    1.13    1.74
  -6  12 -12    2.82    2.01
   6 -10 -14   -1.65    3.23
  -6  10  14   -3.63    4.59
   6 -10 -13    3.97    3.07
  -6  10  13    1.23    3.66
   6 -10 -12   -0.91    2.78
  -6  10  12   -3.39    3.33
   6 -10 -11    1.05    2.52
  -6  10  11    2.32    2.56
   6 -10 -10    3.23    2.23
  -6  10  10   -0.44    2.31
   6 -10  -9    1.15    2.06
  -6  10   9    2.57    2.23
   6 -10  -8    4.07    2.03
  -6  10   8    7.32    2.31
   6 -10  -7    2.73    1.76
  -6  10   7    5.70    2.00
   6 -10  -6   15.33    1.93
  -6  10   6    5.24    2.11
   6 -10  -5    8.11    1.68
  -6  10   5    9.23    1.93
   6 -10  -4    8.59    1.70
  -6  10   4    9.47    1.85
   6 -10  -3   31.64    2.80
  -6  10   3   50.67    3.19
   6 -10  -2   63.20    4.00
  -6  10   2   64.74    4.22
   6 -10  -1   57.97    3.61
  -6  10   1   64.63    5.25
   6 -10   0   60.83    3.81
  -6  10   0   65.43    4.43
  -6  10   0   61.43    3.98
   6 -10   1   68.51    4.27
  -6  10  -1   73.57    4.84
  -6  10  -1   72.02    4.12
   6 -10   2   60.62    3.44
  -6  10  -2   56.52    5.03
  -6  10  -2   58.46    4.19
   6 -10   3   21.90    1.78
  -6  10  -3   18.07    1.52
   6 -10   4   14.05    2.14
   6 -10   4   15.98    2.12
  -6  10  -4   12.53    2.29
  -6  10  -4   18.87    1.60
   6 -10   5    4.85    2.52
  -6  10  -5    7.71    1.97
  -6  10  -5   12.72    1.52
   6 -10   6    5.29    1.74
  -6  10  -6    2.66    1.85
   6 -10   7   -0.76    2.54
  -6  10  -7    4.24    1.82
  -6  10  -7    8.10    1.74
   6 -10   8    0.39    1.69
  -6  10  -8    0.67    1.74
  -6  10  -8    0.10    1.65
   6 -10   9   -0.88    1.99
  -6  10  -9    1.86    1.70
  -6  10  -9    0.70    1.23
   6 -10  10   -0.41    2.18
  -6  10 -10    2.31    1.31
  -6  10 -10    4.65    1.69
   6 -10  11   -1.60    2.82
  -6  10 -11    0.66    1.69
  -6  10 -11    0.08    1.45
  -6  10 -12    3.27    2.03
  -6  10 -12    0.52    2.00
  -6  10 -13   -0.31    1.77
  -6  10 -13    2.40    1.64
   6  -8 -14    6.02    3.25
  -6   8  14    3.51    3.56
   6  -8 -13    2.63    2.88
  -6   8  13    0.60    3.51
   6  -8 -12    4.32    2.64
  -6   8  12   -2.42    3.20
   6  -8 -11    2.81    2.41
  -6   8  11   -0.11    2.46
   6  -8 -10    3.77    2.11
  -6   8  10   -1.96    2.26
   6  -8  -9    1.05    1.91
  -6   8   9   -2.63    2.07
   6  -8  -8    1.39    1.74
  -6   8   8    1.12    1.88
   6  -8  -7    5.95    1.67
  -6   8   7   -0.75    1.84
   6  -8  -6    2.67    1.50
  -6   8   6    4.12    1.68
   6  -8  -5    4.26    1.46
  -6   8   5    2.61    1.58
   6  -8  -4    6.99    1.39
  -6   8   4    6.02    1.63
   6  -8  -3    4.79    1.44
  -6   8   3    5.17    1.58
   6  -8  -2    4.52    1.40
  -6   8   2    4.31    1.56
   6  -8  -1   36.34    2.57
  -6   8   1   42.34    2.97
   6  -8   0   38.21    2.83
  -6   8   0   38.69    2.87
  -6   8  -1   10.81    1.86
  -6   8  -1   13.30    2.18
   6  -8   2    9.25    1.49
  -6   8  -2   11.73    2.07
  -6   8  -2    7.96    1.30
   6  -8   3   12.30    1.51
  -6   8  -3   10.25    1.78
  -6   8  -3   10.46    1.40
   6  -8   4    5.07    1.54
   6  -8   4    8.16    1.31
  -6   8  -4    6.78    1.61
  -6   8  -4    7.46    1.78
   6  -8   5    5.00    1.95
  -6   8  -5    3.18    1.51
  -6   8  -5    5.89    1.66
   6  -8   6    1.83    1.34
  -6   8  -6   -1.31    1.43
  -6   8  -6    1.24    1.61
  -6   8  -7   -0.61    1.69
  -6   8  -7    0.21    1.53
   6  -8   8    1.02    1.71
  -6   8  -8    0.76    1.87
  -6   8  -8    1.03    1.17
   6  -8   9   -1.43    2.38
  -6   8  -9    1.93    1.40
  -6   8  -9    3.18    1.78
   6  -8  10    0.60    2.48
  -6   8 -10    1.59    1.36
  -6   8 -10   -1.12    1.91
   6  -8  11    2.53    2.50
  -6   8 -11   -1.77    1.43
  -6   8 -11    2.19    1.55
   6  -8  12   -0.75    2.57
  -6   8 -12   -2.01    2.26
  -6   8 -12   -0.12    1.82
   6  -8  13   -2.02    2.57
  -6   8 -13    0.65    1.46
  -6   8 -13   -1.98    2.04
   6  -6 -14    4.06    3.16
  -6   6  14    8.81    4.73
   6  -6 -13    3.61    2.88
  -6   6  13    5.05    3.61
   6  -6 -12    3.66    2.62
  -6   6  12    0.64    3.15
   6  -6 -11    6.87    2.52
  -6   6  11    3.99    2.63
   6  -6 -10    1.94    2.02
  -6   6  10    0.78    2.99
   6  -6  -9    7.61    2.10
  -6   6   9    6.38    2.24
   6  -6  -8    6.77    1.97
  -6   6   8   11.81    2.23
   6  -6  -7   10.40    1.89
  -6   6   7   11.58    2.04
   6  -6  -6   15.68    1.92
  -6   6   6   17.35    2.20
   6  -6  -5    5.61    1.46
  -6   6   5    7.23    1.58
   6  -6  -4   -0.57    1.13
  -6   6   4    0.26    1.31
   6  -6  -3   17.71    1.87
  -6   6   3   18.14    2.03
   6  -6  -2   12.16    1.78
  -6   6   2   18.91    2.03
   6  -6  -1   43.42    3.06
  -6   6   1   51.23    3.10
   6  -6   0   54.02    3.60
  -6   6   0   54.95    3.51
   6  -6   1   22.60    1.94
  -6   6  -1   22.76    2.41
  -6   6  -1   22.01    1.83
   6  -6   2   21.59    1.78
  -6   6  -2   21.40    2.79
  -6   6  -2   21.70    2.41
   6  -6   3    2.68    1.15
  -6   6  -3    1.38    1.22
  -6   6  -3    0.59    1.18
  -6   6  -4    8.22    1.45
  -6   6  -4    6.42    1.35
   6  -6   5   16.04    1.65
  -6   6  -5   17.34    1.67
  -6   6  -5   14.92    1.63
   6  -6   6    9.48    1.57
  -6   6  -6   13.51    2.04
  -6   6  -6   13.85    1.58
   6  -6   7    8.32    1.97
  -6   6  -7    6.63    1.07
  -6   6  -7    6.19    2.02
   6  -6   8    4.29    1.68
  -6   6  -8    7.11    1.66
  -6   6  -8    6.33    1.46
   6  -6   9    2.21    2.05
  -6   6  -9    0.04    1.40
  -6   6  -9    1.83    1.82
   6  -6  10    2.96    2.23
  -6   6 -10    1.70    1.53
  -6   6 -10    1.74    1.57
   6  -6  11    6.14    1.74
  -6   6 -11   -0.10    1.66
  -6   6 -11    3.43    1.84
   6  -6  12    2.92    1.74
  -6   6 -12    2.33    1.95
  -6   6 -12    1.76    2.09
   6  -6  13   -0.09    2.25
  -6   6 -13    1.50    1.66
  -6   6 -13    0.50    2.28
   6  -4 -14   -0.01    3.59
  -6   4  14    1.65    4.05
   6  -4 -13    2.95    2.65
  -6   4  13    2.76    3.36
   6  -4 -12   -0.49    2.45
  -6   4  12   -3.61    2.59
   6  -4 -11    1.55    2.23
  -6   4  11    2.63    2.34
   6  -4 -10    1.83    1.99
  -6   4  10    0.57    2.09
   6  -4  -9    0.49    2.58
  -6   4   9    6.45    2.74
   6  -4  -8    0.75    1.64
  -6   4   8    4.72    2.47
   6  -4  -7   -0.54    1.42
  -6   4   7    8.58    2.15
   6  -4  -6   -1.10    1.32
  -6   4   6    2.59    1.45
   6  -4  -5    0.31    1.15
  -6   4   5   -1.32    1.33
   6  -4  -4    4.08    1.39
  -6   4   4    6.59    1.45
   6  -4  -3    1.27    1.20
  -6   4   3    0.48    1.36
   6  -4  -2    2.55    1.25
  -6   4   2    3.89    1.36
   6  -4  -1   11.14    1.78
  -6   4   1   11.06    1.81
   6  -4   0   11.86    1.65
  -6   4   0   10.37    1.58
   6  -4   1    5.72    1.40
  -6   4  -1    3.85    1.32
   6  -4   2    0.94    1.30
  -6   4  -2    4.13    1.22
   6  -4   3    5.14    1.39
  -6   4  -3    7.40    1.19
  -6   4  -3    6.71    1.39
  -6   4  -4    0.96    1.00
  -6   4  -4   -1.70    1.50
   6  -4   5   -0.66    0.90
  -6   4  -5   -1.28    1.01
  -6   4  -5    3.53    1.66
   6  -4   6   -0.05    0.93
  -6   4  -6   -0.89    0.74
  -6   4  -6   -1.52    1.21
   6  -4   7    0.80    1.39
  -6   4  -7   -0.31    0.82
  -6   4  -7   -0.56    1.22
   6  -4   8    1.97    1.26
  -6   4  -8    0.78    1.46
  -6   4  -8   -0.10    1.41
   6  -4   9    1.41    1.76
  -6   4  -9   -0.35    1.49
  -6   4  -9    0.56    2.08
   6  -4  10   -0.03    1.89
  -6   4 -10    2.55    2.19
  -6   4 -10    0.91    1.81
   6  -4  11    2.20    1.49
  -6   4 -11    1.47    1.80
  -6   4 -11    6.77    2.20
   6  -4  12    1.74    1.50
  -6   4 -12    2.85    2.15
  -6   4 -12    3.10    2.49
   6  -4  13    1.37    1.95
  -6   4 -13   -1.20    1.84
  -6   4 -13    2.01    2.65
   6  -2 -14    2.70    2.66
  -6   2  14    1.33    3.92
   6  -2 -13   -5.54    2.49
  -6   2  13    6.05    3.09
   6  -2 -12    1.69    3.09
  -6   2  12   -1.91    2.81
   6  -2 -11    1.03    2.93
  -6   2  11   -3.77    2.27
   6  -2 -10    0.20    1.91
  -6   2  10    2.49    2.04
   6  -2  -9    0.38    1.74
  -6   2   9   -3.46    1.86
   6  -2  -8    0.05    1.49
  -6   2   8   -0.02    1.62
   6  -2  -7   -0.18    1.98
  -6   2   7    3.02    1.49
   6  -2  -6    4.66    1.32
  -6   2   6    3.38    1.48
   6  -2  -5    3.43    1.20
  -6   2   5    1.34    1.34
   6  -2  -4    3.56    1.24
  -6   2   4   -0.07    1.31
   6  -2  -3    3.06    1.19
  -6   2   3    2.48    1.43
   6  -2  -2    5.21    1.45
  -6   2   2    2.59    1.55
   6  -2  -1   16.83    2.05
  -6   2   1   17.68    1.89
   6  -2   0   23.15    2.20
  -6   2   0   24.39    2.11
   6  -2   1    7.22    1.46
  -6   2  -1    6.30    1.42
   6  -2   2    3.01    1.31
  -6   2  -2    5.67    1.28
  -6   2  -2    3.71    1.34
  -6   2  -3    4.71    1.54
  -6   2  -3    2.09    1.24
  -6   2  -4    4.48    1.19
  -6   2  -4    4.56    1.42
  -6   2  -5    4.35    1.11
  -6   2  -5    3.33    1.36
   6  -2   6   -0.22    1.09
  -6   2  -6    0.34    0.90
  -6   2  -6    3.19    1.33
   6  -2   7    0.93    1.16
  -6   2  -7    0.97    1.39
  -6   2  -7   -1.40    1.36
   6  -2   8    1.40    1.10
  -6   2  -8    6.27    2.19
  -6   2  -8    0.33    1.63
   6  -2   9    1.34    1.57
  -6   2  -9    5.84    2.23
  -6   2  -9    0.54    1.90
   6  -2  10    2.69    1.71
  -6   2 -10    2.54    2.40
   6  -2  11    0.13    1.23
  -6   2 -11    0.27    2.48
   6  -2  12    2.46    1.32
  -6   2 -12    0.73    2.32
   6  -2  13    1.25    1.78
  -6   2 -13    2.09    2.06
  -6   2 -14   -0.81    2.12
  -6   2 -14    3.42    3.13
   6   0 -14   -0.77    2.40
  -6   0  14    1.89    2.65
   6   0 -13    2.09    2.43
  -6   0  13    3.44    3.00
   6   0 -12    4.97    2.28
  -6   0  12   -0.68    2.81
   6   0 -11    5.25    2.13
  -6   0  11    1.10    2.22
   6   0 -10    4.58    1.88
  -6   0  10    1.53    1.99
   6   0  -9    8.71    2.53
  -6   0   9    4.26    1.98
   6   0  -8   12.40    2.04
  -6   0   8   12.47    2.15
   6   0  -7   17.82    2.00
  -6   0   7   20.20    2.23
   6   0  -6   29.65    2.37
  -6   0   6   29.24    3.22
   6   0  -5   25.86    2.21
   6   0  -4   17.75    1.85
  -6   0   4   20.09    1.93
   6   0  -3  102.19    5.67
  -6   0   3  105.63    5.53
   6   0  -2  148.38    8.28
  -6   0   2  133.70    7.96
   6   0  -1  204.87   11.55
  -6   0   1  198.12   11.76
   6   0   0  201.98   11.98
  -6   0   0  164.84    9.57
   6   0   1  113.25    6.19
  -6   0  -1  128.13    6.66
   6   0   2  116.97    6.32
  -6   0  -2  106.16    5.98
  -6   0  -3   21.24    1.70
  -6   0  -3   16.66    2.16
  -6   0  -4   29.53    1.49
  -6   0  -4   22.68    2.26
  -6   0  -5   32.39    1.41
  -6   0  -5   22.32    2.52
  -6   0  -6   10.89    1.24
  -6   0  -6   20.38    1.91
   6   0   7   11.35    1.20
  -6   0  -7    1.92    1.48
   6   0   8    6.99    1.26
  -6   0  -8    6.74    1.90
   6   0   9   -0.26    1.24
  -6   0  -9    0.04    1.62
   6   0  10    1.83    1.43
  -6   0 -10    1.09    1.87
   6   0  11    2.20    1.53
  -6   0 -11    1.52    2.75
   6   0  12   -0.28    1.52
  -6   0 -12    1.83    2.41
   6   0  13    1.22    1.55
  -6   0 -13    0.38    2.18
  -6   0 -14    2.13    2.39
   6   2 -14    0.86    3.22
  -6  -2  14    6.39    2.67
  -6  -2  14    1.88    2.65
   6   2 -13    4.69    3.10
  -6  -2  13    2.48    2.47
   6   2 -12   -1.26    2.75
  -6  -2  12    0.16    2.48
   6   2 -11    0.89    2.63
  -6  -2  11    1.98    2.69
   6   2 -10   -0.03    1.71
  -6  -2  10   -0.33    1.79
   6   2  -9    2.48    1.50
  -6  -2   9    1.87    1.72
   6   2  -8    2.74    1.85
  -6  -2   8   -0.32    1.47
   6   2  -7    0.75    1.43
  -6  -2   7    5.37    1.92
   6   2  -6    3.07    1.37
  -6  -2   6    1.93    1.27
   6   2  -5    3.54    1.22
  -6  -2   5    0.09    1.62
   6   2  -4    3.87    1.27
  -6  -2   4    4.20    1.70
   6   2  -3    3.99    1.37
  -6  -2   3    3.38    1.37
   6   2  -2    1.60    1.33
  -6  -2   2    7.08    1.34
   6   2  -1   16.55    1.62
  -6  -2   1   20.92    1.88
   6   2   0   18.24    1.80
  -6  -2   0   19.09    1.76
   6   2   1    3.48    1.30
  -6  -2  -1    1.35    1.25
  -6  -2  -2    3.45    1.46
  -6  -2  -3    2.31    0.77
  -6  -2  -3    0.74    1.30
  -6  -2  -4    2.30    0.53
  -6  -2  -4    1.83    1.30
  -6  -2  -6    0.22    1.46
   6   2   7    0.52    0.73
  -6  -2  -7    0.05    1.31
   6   2   8    0.20    0.82
  -6  -2  -8   -1.32    1.59
   6   2   9    0.22    1.31
  -6  -2  -9    2.47    1.78
   6   2  10    0.61    1.18
  -6  -2 -10    2.13    1.97
   6   2  11    1.63    1.28
  -6  -2 -11    1.41    2.14
   6   2  12    0.73    1.32
  -6  -2 -12   -0.86    3.47
   6   2  13    1.49    1.36
  -6  -2 -13   -2.53    2.33
  -6  -2 -14    4.20    2.65
   6   4 -14    0.81    1.96
  -6  -4  14    3.26    3.14
   6   4 -13   -2.74    1.90
  -6  -4  13    2.86    2.90
   6   4 -12    2.30    1.80
  -6  -4  12   -1.85    3.09
   6   4 -11   -1.13    2.20
  -6  -4  11    0.44    2.40
   6   4 -10   -0.36    2.01
  -6  -4  10    1.17    2.22
   6   4  -9    1.51    1.42
  -6  -4   9    0.99    1.54
   6   4  -8    2.05    1.94
  -6  -4   8    0.66    1.36
   6   4  -7   -1.01    1.30
  -6  -4   7   -2.37    1.70
   6   4  -6   -0.25    1.05
  -6  -4   6    0.19    1.47
   6   4  -5    1.33    1.12
  -6  -4   5    0.89    1.06
   6   4  -4    5.25    1.73
  -6  -4   4    4.32    1.11
   6   4  -3    1.74    1.09
  -6  -4   3   -0.16    1.65
   6   4  -2    3.09    1.14
  -6  -4   2    3.46    1.27
   6   4  -1    9.00    1.34
  -6  -4   1    9.64    1.36
   6   4   0    9.18    1.42
  -6  -4   0    9.20    1.51
  -6  -4  -1    4.62    1.38
  -6  -4  -2    2.48    1.26
  -6  -4  -3    6.05    0.76
  -6  -4  -3    4.84    1.34
  -6  -4  -5   -0.11    0.97
  -6  -4  -7   -0.37    1.45
  -6  -4  -8    1.23    1.34
   6   4   9    1.10    0.96
  -6  -4  -9    2.21    2.54
   6   4  10    0.96    0.92
  -6  -4 -10   -1.61    2.04
   6   4  11    1.44    1.41
  -6  -4 -11    5.23    2.31
   6   4  12    1.39    1.19
  -6  -4 -12    2.95    2.77
   6   4  13    1.80    1.25
  -6  -4 -13   -1.09    2.50
  -6  -4 -14    2.05    2.73
   6   6 -14    2.94    1.98
  -6  -6  14    0.04    2.13
   6   6 -13    3.60    2.08
  -6  -6  13    5.35    2.10
   6   6 -12    0.87    1.83
  -6  -6  12    1.58    2.08
   6   6 -11    4.59    2.44
  -6  -6  11    3.86    2.39
   6   6 -10    0.08    2.09
  -6  -6  10    1.58    2.05
   6   6  -9    5.39    1.70
   6   6  -9    7.51    1.65
  -6  -6   9    3.50    2.15
   6   6  -8   14.49    2.39
  -6  -6   8   13.59    1.79
   6   6  -7   12.21    1.95
  -6  -6   7   12.50    1.61
   6   6  -6   21.24    2.28
  -6  -6   6   17.56    2.15
   6   6  -5   11.54    1.37
  -6  -6   5   12.09    1.75
   6   6  -4   -0.48    1.28
  -6  -6   4    2.03    1.02
   6   6  -3   16.44    1.24
  -6  -6   3   21.12    2.07
   6   6  -2   18.80    1.45
  -6  -6   2   20.38    1.67
   6   6  -1   34.76    2.12
  -6  -6   1   37.83    2.24
  -6  -6   0   49.48    2.97
  -6  -6  -1   12.99    1.54
  -6  -6  -2   13.86    1.59
  -6  -6  -4    1.97    1.06
  -6  -6  -5   11.82    2.25
  -6  -6  -6    7.80    1.99
  -6  -6  -7    1.74    1.63
  -6  -6  -8    6.19    1.75
  -6  -6  -9   -1.90    1.98
  -6  -6 -10    4.30    2.31
  -6  -6 -11    6.74    3.06
  -6  -6 -12   -1.82    2.99
  -6  -6 -13   -3.78    3.83
   6   8 -14    1.93    1.75
  -6  -8  14    0.22    2.61
   6   8 -13    1.05    1.68
  -6  -8  13   -3.38    2.33
   6   8 -12   -0.01    2.15
  -6  -8  12    0.90    2.13
   6   8 -11    1.18    2.09
  -6  -8  11    0.21    2.30
   6   8 -10    1.81    1.42
  -6  -8  10    0.05    1.36
   6   8  -9    3.07    1.71
  -6  -8   9    1.81    1.77
   6   8  -8    0.32    1.53
  -6  -8   8   -1.43    1.59
   6   8  -7    2.61    1.47
  -6  -8   7    3.46    1.12
   6   8  -6    5.55    1.41
   6   8  -5    7.03    0.93
  -6  -8   5    8.80    1.40
   6   8  -4    8.61    1.18
  -6  -8   4   11.46    1.23
   6   8  -3    6.67    0.93
  -6  -8   3    9.20    1.61
   6   8  -2    6.02    1.52
  -6  -8   2    9.32    1.10
  -6  -8   1   25.46    1.61
  -6  -8   0   36.96    2.37
  -6  -8  -1    6.63    1.20
  -6  -8  -2    3.98    1.49
  -6  -8  -3    4.81    1.14
  -6  -8  -4    4.01    1.84
  -6  -8  -5    0.56    1.72
  -6  -8  -6    1.69    1.75
  -6  -8  -7    8.14    2.05
  -6  -8  -8    8.54    2.08
  -6  -8  -9    2.76    1.72
  -6  -8 -10    1.95    2.30
  -6  -8 -11    8.80    4.57
  -6  -8 -12   -0.60    2.60
  -6  -8 -13    2.68    2.92
   6  10 -14    3.84    1.72
  -6 -10  14    3.44    3.47
   6  10 -13    1.26    2.00
  -6 -10  13    2.73    2.14
   6  10 -12   -0.21    1.86
  -6 -10  12    2.35    1.91
   6  10 -11    2.99    1.43
  -6 -10  11    2.90    2.08
   6  10 -10    2.84    1.59
  -6 -10  10    0.90    1.58
   6  10  -9    2.51    1.35
  -6 -10   9   -1.56    1.50
   6  10  -8    5.14    1.26
  -6 -10   8    5.63    1.66
   6  10  -7    6.20    1.08
  -6 -10   7    5.52    1.51
   6  10  -6   11.45    1.24
  -6 -10   6   13.48    1.52
   6  10  -5   17.98    1.39
  -6 -10   5   17.79    1.63
   6  10  -4   19.11    1.52
  -6 -10   4   20.32    1.83
   6  10  -3   57.97    2.67
  -6 -10   3   58.24    3.38
  -6 -10   2   56.13    2.59
  -6 -10   1   54.22    2.62
  -6 -10   0   43.05    2.12
  -6 -10  -1   36.48    1.80
  -6 -10  -1   58.48    3.05
  -6 -10  -2   27.04    1.10
  -6 -10  -2   32.41    1.92
  -6 -10  -3   13.54    3.08
  -6 -10  -4    6.32    2.03
  -6 -10  -5    5.58    2.00
  -6 -10  -6    7.20    2.09
  -6 -10  -7    0.32    1.92
  -6 -10  -8    1.68    1.99
  -6 -10  -9    1.35    1.91
  -6 -10 -10   -0.03    2.12
  -6 -10 -11    1.78    3.09
  -6 -10 -12    0.04    2.64
  -6 -10 -13    5.56    3.20
   6  12 -13    0.82    0.59
  -6 -12  13    2.44    3.64
  -6 -12  13   -0.65    1.79
   6  12 -12    1.09    0.59
  -6 -12  12   -1.35    3.08
  -6 -12  12    0.49    1.63
  -6 -12  11    9.85    2.97
  -6 -12  11    2.03    1.55
   6  12 -10    1.46    0.66
  -6 -12  10   -0.85    1.49
   6  12  -9    2.34    0.79
  -6 -12   9    0.38    1.28
   6  12  -8    8.18    1.05
  -6 -12   8    8.01    1.56
   6  12  -7   11.82    1.15
  -6 -12   7   14.29    1.57
   6  12  -6   20.14    1.42
  -6 -12   6   21.23    1.59
   6  12  -5   12.16    1.35
  -6 -12   5   14.28    1.25
  -6 -12   4    6.98    1.16
  -6 -12   3   26.95    1.90
  -6 -12   2   23.03    1.71
  -6 -12   2   33.58    1.58
  -6 -12   1   31.38    2.24
  -6 -12   1   33.72    1.66
  -6 -12   0   28.21    2.11
  -6 -12   0   40.60    2.16
  -6 -12  -1   28.28    1.75
  -6 -12  -1   24.28    1.58
  -6 -12  -2   13.23    0.98
  -6 -12  -2   21.63    2.24
  -6 -12  -3    1.59    0.38
  -6 -12  -3    1.00    1.68
  -6 -12  -4    7.14    1.92
  -6 -12  -5   14.70    2.46
  -6 -12  -6    5.67    2.17
  -6 -12  -7    7.32    2.31
  -6 -12  -8    4.81    3.05
  -6 -12  -9    0.51    2.34
  -6 -12 -10   -1.71    2.53
  -6 -12 -11    2.48    2.19
  -6 -12 -12    5.84    3.16
  -6 -12 -13    3.64    3.27
  -6 -14  13    1.94    4.20
   6  14 -12    1.44    1.01
  -6 -14  12   -4.42    5.09
  -6 -14  12    1.84    1.49
   6  14 -11    1.92    0.95
  -6 -14  11    5.10    3.41
  -6 -14  11   -0.54    1.08
   6  14 -10    0.33    0.76
  -6 -14  10    4.74    2.99
  -6 -14  10    0.16    1.16
   6  14  -9    0.95    0.86
  -6 -14   9    2.74    2.85
  -6 -14   9    1.11    1.10
   6  14  -8    1.05    0.82
  -6 -14   8    1.80    2.42
  -6 -14   8    2.20    0.91
  -6 -14   7    8.22    2.21
  -6 -14   7    2.02    1.01
  -6 -14   6    8.39    1.99
  -6 -14   6    4.51    0.96
  -6 -14   5    0.80    1.72
  -6 -14   5    3.37    0.87
  -6 -14   4    3.90    1.52
  -6 -14   4    3.73    1.05
  -6 -14   3   10.42    1.48
  -6 -14   3    3.68    1.11
  -6 -14   2    5.07    1.26
  -6 -14   2    3.29    0.98
  -6 -14   1   15.77    1.56
  -6 -14   1   13.95    1.59
  -6 -14   0   12.76    1.31
  -6 -14   0   12.70    2.19
  -6 -14   0   15.80    1.52
  -6 -14  -1    2.86    1.04
  -6 -14  -1    7.76    1.43
  -6 -14  -2    2.68    0.79
  -6 -14  -2    1.42    1.54
  -6 -14  -3   -1.08    1.56
  -6 -14  -4    2.70    1.75
  -6 -14  -5    1.36    1.86
  -6 -14  -6    7.41    2.29
  -6 -14  -7    3.55    2.24
  -6 -14  -8    5.19    2.44
  -6 -14  -9    0.56    2.60
  -6 -14 -10    7.34    3.12
  -6 -14 -11    4.83    2.53
  -6 -14 -12    2.32    2.47
  -6 -16  12    3.72    4.91
  -6 -16  11    9.01    4.75
  -6 -16  10   -2.85    3.65
  -6 -16   9    1.84    3.21
  -6 -16   8    5.17    3.12
  -6 -16   7    8.25    2.79
  -6 -16   7    5.67    0.88
  -6 -16   6   13.20    2.47
  -6 -16   6    6.40    1.10
  -6 -16   5    3.41    2.05
  -6 -16   5    4.86    1.14
  -6 -16   4    6.99    1.94
  -6 -16   4    5.78    1.09
  -6 -16   3   18.08    2.18
  -6 -16   3   13.80    1.58
  -6 -16   3   12.72    1.30
  -6 -16   2   12.20    1.77
  -6 -16   2    8.22    1.70
  -6 -16   1   28.23    1.97
  -6 -16   1   26.65    1.88
  -6 -16   1   31.23    1.80
  -6 -16   0   24.61    1.70
  -6 -16   0   28.16    1.96
  -6 -16  -1   10.08    1.54
  -6 -16  -1   17.36    1.69
  -6 -16  -2   10.62    1.41
  -6 -16  -2    8.76    1.81
  -6 -16  -3    4.42    1.72
  -6 -16  -4    8.83    2.12
  -6 -16  -5    3.97    2.10
  -6 -16  -6    5.68    2.42
  -6 -16  -7    3.64    2.41
  -6 -16  -8    6.50    3.02
  -6 -16  -9   -0.96    2.79
  -6 -16 -10    1.53    2.58
  -6 -16 -11    0.92    2.67
  -6 -16 -12    3.26    2.89
  -6 -18  12    6.94    5.39
  -6 -18  11   -2.43    4.59
  -6 -18  10    4.13    4.22
  -6 -18   9    3.02    3.78
  -6 -18   8    3.59    3.40
  -6 -18   7    2.71    2.90
  -6 -18   6    8.54    2.50
  -6 -18   6    2.68    0.72
  -6 -18   5    2.49    2.09
  -6 -18   5    1.41    0.87
  -6 -18   5    2.15    0.93
  -6 -18   4    1.99    1.84
  -6 -18   4    1.42    1.01
  -6 -18   4    1.90    1.04
  -6 -18   3    1.84    1.80
  -6 -18   3    3.09    1.21
  -6 -18   3    3.01    0.92
  -6 -18   2    1.15    1.48
  -6 -18   2    2.69    1.36
  -6 -18   2    7.29    1.31
  -6 -18   1   13.13    1.56
  -6 -18   1    7.70    1.77
  -6 -18   1   12.37    1.35
  -6 -18   0    8.82    1.34
  -6 -18   0    6.62    1.37
  -6 -18  -1    1.91    1.27
  -6 -18  -1    2.10    1.30
  -6 -18  -2    2.75    0.86
  -6 -18  -2    4.81    2.02
  -6 -18  -3    1.30    1.62
  -6 -18  -4    1.17    1.80
  -6 -18  -5    8.37    2.36
  -6 -18  -6    3.76    2.65
  -6 -18  -7    1.81    3.68
  -6 -18  -8    4.03    3.06
  -6 -18  -9   -0.45    2.54
  -6 -18 -10    2.38    2.83
  -6 -18 -11    2.30    3.00
  -6 -20  11   -2.42    4.75
  -6 -20  10   -1.15    4.18
  -6 -20   9    3.97    3.89
  -6 -20   8    6.35    3.58
  -6 -20   7    3.64    2.93
  -6 -20   6    2.99    2.59
  -6 -20   5    3.64    2.21
  -6 -20   5    2.53    0.94
  -6 -20   5    0.64    0.77
  -6 -20   4    2.26    1.79
  -6 -20   4    4.46    1.15
  -6 -20   4    0.77    0.79
  -6 -20   3    2.78    1.74
  -6 -20   3    1.72    1.32
  -6 -20   3    2.79    1.09
  -6 -20   2    2.21    1.53
  -6 -20   2    1.94    1.45
  -6 -20   2    0.41    1.33
  -6 -20   1    3.43    1.57
  -6 -20   1    6.12    1.29
  -6 -20   1    4.17    1.65
  -6 -20   0    6.88    1.50
  -6 -20  -1    0.36    1.28
  -6 -20  -1    1.79    1.37
  -6 -20  -2    1.00    1.20
  -6 -20  -2    2.63    2.06
  -6 -20  -3    4.54    1.86
  -6 -20  -4    0.15    2.10
  -6 -20  -5    7.57    2.73
  -6 -20  -6    1.18    2.60
  -6 -20  -7    2.47    2.43
  -6 -20  -8    2.05    2.57
  -6 -20  -9    0.21    2.70
  -6 -20 -10    2.37    3.10
  -6 -22  10    6.36    4.88
  -6 -22   9    8.69    4.50
  -6 -22   8    5.80    3.30
  -6 -22   7    2.11    2.73
  -6 -22   6    7.79    2.67
  -6 -22   5    7.37    2.29
  -6 -22   5    1.88    1.06
  -6 -22   4    5.03    2.05
  -6 -22   4    1.18    1.49
  -6 -22   3    9.03    2.56
  -6 -22   3   -1.30    1.72
  -6 -22   3   -0.25    1.16
  -6 -22   2   -2.96    1.76
  -6 -22   2    0.64    1.41
  -6 -22   1    9.63    1.83
  -6 -22   1    2.38    1.83
  -6 -22   1   10.16    1.84
  -6 -22   0   11.09    2.06
  -6 -22   0    2.87    1.90
  -6 -22  -1    2.34    1.41
  -6 -22  -1    1.46    1.78
  -6 -22  -2    1.17    1.33
  -6 -22  -2    0.88    1.88
  -6 -22  -3    4.60    3.10
  -6 -22  -4    5.48    2.61
  -6 -22  -5    3.45    2.71
  -6 -22  -6    3.43    2.47
  -6 -22  -7    2.87    2.63
  -6 -22  -8   -0.94    2.68
  -6 -22  -9    1.02    2.97
  -6 -22 -10    2.89    4.45
  -6 -24   9    2.54    3.57
  -6 -24   8    3.34    3.24
  -6 -24   7    4.26    2.96
  -6 -24   6    5.02    2.76
  -6 -24   5    1.22    2.33
  -6 -24   4    2.64    2.26
  -6 -24   4    1.42    1.27
  -6 -24   4    2.14    0.87
  -6 -24   3    6.65    2.30
  -6 -24   3    4.90    1.71
  -6 -24   3    3.47    1.43
  -6 -24   2    9.85    2.14
  -6 -24   2    2.02    2.02
  -6 -24   2    3.09    1.24
  -6 -24   1   10.64    2.65
  -6 -24   1    4.62    1.79
  -6 -24   1    6.02    1.94
  -6 -24   0   13.74    2.93
  -6 -24   0    4.77    1.98
  -6 -24  -1    3.00    1.96
  -6 -24  -1    3.95    1.85
  -6 -24  -2    1.00    1.18
  -6 -24  -2    3.64    1.85
  -6 -24  -3    0.60    1.96
  -6 -24  -4    1.69    2.18
  -6 -24  -5    0.28    2.27
  -6 -24  -6   -2.09    2.53
  -6 -24  -7    4.69    2.95
  -6 -24  -8   -0.78    2.93
  -6 -24  -9    7.52    3.53
  -6 -26   8    3.32    3.33
  -6 -26   7    1.58    2.94
  -6 -26   6    3.25    2.81
  -6 -26   5    1.50    2.62
  -6 -26   4    2.83    3.26
  -6 -26   4    1.15    1.42
  -6 -26   4    1.19    0.85
  -6 -26   3    3.45    1.69
  -6 -26   3    2.25    1.42
  -6 -26   2    6.46    2.93
  -6 -26   2    2.99    2.09
  -6 -26   2    3.19    1.69
  -6 -26   1    2.24    2.52
  -6 -26   1    4.06    2.52
  -6 -26   1    7.01    1.90
  -6 -26   0    2.08    1.82
  -6 -26   0    4.64    2.00
  -6 -26  -1    2.89    1.53
  -6 -26  -1    5.22    2.06
  -6 -26  -2    3.81    2.15
  -6 -26  -3    4.74    2.33
  -6 -26  -4    5.29    2.54
  -6 -26  -5    4.69    2.67
  -6 -26  -6    4.70    2.90
  -6 -26  -7   -1.56    2.84
  -6 -26  -8    0.65    2.98
  -6 -28   6    5.56    4.39
  -6 -28   5    6.25    3.08
  -6 -28   4    2.27    1.10
  -6 -28   3    6.86    3.36
  -6 -28   3    3.12    1.67
  -6 -28   3    2.88    1.44
  -6 -28   2    5.16    2.97
  -6 -28   2    4.90    2.23
  -6 -28   2    4.87    1.81
  -6 -28   1    4.54    2.59
  -6 -28   1    4.13    2.52
  -6 -28   1    3.86    1.92
  -6 -28   0    9.81    2.73
  -6 -28   0    2.74    2.20
  -6 -28  -1    2.03    2.15
  -6 -28  -1    0.41    2.19
  -6 -28  -2    2.54    2.37
  -6 -28  -3    2.34    2.54
  -6 -28  -4    3.10    2.71
  -6 -28  -5   -1.63    2.72
  -6 -28  -6   -0.31    2.78
  -6 -30   5    1.16    2.92
  -6 -30   4    5.35    2.87
  -6 -30   3    6.98    3.15
  -6 -30   3    1.78    1.54
  -6 -30   3    0.64    1.40
  -6 -30   2    1.95    2.92
  -6 -30   2    5.09    2.06
  -6 -30   2    3.06    1.78
  -6 -30   1    6.54    2.94
  -6 -30   1   -0.41    1.73
  -6 -30   1    0.74    1.35
  -6 -30   0    2.45    1.87
  -6 -30   0    3.21    2.07
  -6 -30   0    0.38    1.36
  -6 -30  -1    1.78    1.80
  -6 -30  -1    2.30    3.10
  -6 -30  -2    1.98    3.35
  -6 -30  -3    3.44    3.74
  -6 -30  -4    5.81    3.06
  -7  31   2    2.73    3.87
   7 -31  -1    7.40    3.91
  -7  31   1    5.59    3.82
  -7  31   0    1.84    2.21
  -7  31  -1    0.94    1.56
   7 -29  -6    1.06    3.38
  -7  29   6   -0.36    3.49
   7 -29  -5    2.21    3.02
  -7  29   5    1.40    3.43
   7 -29  -4    7.52    3.25
  -7  29   4    6.30    3.56
   7 -29  -3    1.56    3.94
  -7  29   3    1.40    2.94
   7 -29  -2    4.27    3.92
  -7  29   2    1.43    2.86
   7 -29  -1   -1.86    2.49
  -7  29   1    4.67    3.40
   7 -29   0    4.88    2.67
  -7  29   0    4.99    3.35
   7 -29   1    3.54    2.97
  -7  29  -1    5.49    2.95
   7 -29   2    0.11    2.15
  -7  29  -2    3.88    2.81
  -7  29  -2    2.14    2.08
   7 -29   3    1.22    1.48
  -7  29  -3    1.82    3.09
  -7  29  -3    2.35    1.02
   7 -29   4    2.14    1.85
  -7  29  -4    0.63    0.41
   7 -27  -7    2.57    3.55
  -7  27   7    3.21    0.98
  -7  27   7    2.50    3.66
   7 -27  -6    2.83    3.33
  -7  27   6    2.52    0.89
  -7  27   6    0.75    3.49
   7 -27  -5   -1.12    2.95
  -7  27   5    8.02    3.39
   7 -27  -4    8.60    2.94
  -7  27   4   -1.01    3.36
   7 -27  -3    6.53    3.28
  -7  27   3   11.34    4.59
   7 -27  -2    0.43    3.21
  -7  27   2   13.83    3.18
   7 -27  -1   11.14    3.00
  -7  27   1    8.52    3.07
   7 -27   0    2.16    2.79
  -7  27   0   11.82    3.51
   7 -27   1    3.90    3.10
  -7  27  -1    5.87    3.04
   7 -27   2    2.86    2.35
  -7  27  -2    6.63    2.90
  -7  27  -2    1.55    1.92
   7 -27   3    4.54    1.29
  -7  27  -3    0.55    3.23
  -7  27  -3    3.99    1.58
  -7  27  -3    3.57    1.53
   7 -27   4    2.30    1.27
  -7  27  -4    3.91    3.63
  -7  27  -4    0.90    1.04
   7 -27   5    3.93    1.75
  -7  27  -5    7.05    4.05
   7 -25  -9   -4.14    3.56
  -7  25   9    0.56    3.04
  -7  25   9   -3.03    4.14
   7 -25  -8   -0.67    3.31
  -7  25   8    1.77    1.91
  -7  25   8    7.05    3.38
   7 -25  -7   -2.96    3.05
  -7  25   7    0.54    1.61
  -7  25   7   -0.47    3.19
   7 -25  -6    5.10    2.95
  -7  25   6   -1.07    0.96
  -7  25   6   -0.10    3.21
   7 -25  -5    4.71    3.15
  -7  25   5    6.88    4.51
   7 -25  -4    8.88    4.05
  -7  25   4    9.86    3.46
   7 -25  -3   -0.72    2.56
  -7  25   3    1.17    2.65
   7 -25  -2    4.78    2.79
  -7  25   2    6.35    3.88
   7 -25  -1    8.79    2.55
  -7  25   1    0.19    2.42
  -7  25   1   -1.25    2.41
   7 -25   0   -0.60    2.23
  -7  25   0   10.14    3.05
   7 -25   1    0.23    2.03
  -7  25  -1    5.41    2.66
   7 -25   2   -0.34    2.14
  -7  25  -2   -4.00    2.61
  -7  25  -2    2.24    1.64
  -7  25  -3   -7.48    3.13
  -7  25  -3   -2.81    2.17
   7 -25   4    1.15    1.20
  -7  25  -4   -5.59    3.01
  -7  25  -4    3.44    1.74
   7 -25   5    1.18    1.55
  -7  25  -5   -0.66    3.54
  -7  25  -5    0.81    1.12
  -7  25  -6   -2.69    3.65
  -7  25  -6    0.64    0.30
  -7  25  -7   -0.73    3.77
   7 -23 -10   -0.51    3.35
  -7  23  10    1.64    3.84
   7 -23  -9    1.24    3.16
  -7  23   9    0.38    3.13
   7 -23  -8    2.15    3.11
  -7  23   8    2.11    3.17
   7 -23  -7   -0.45    2.92
  -7  23   7    1.52    1.88
  -7  23   7    4.04    3.14
   7 -23  -6   -1.45    2.74
  -7  23   6    0.48    1.23
  -7  23   6    3.78    2.98
   7 -23  -5    8.47    3.04
  -7  23   5    7.73    3.25
   7 -23  -4    2.19    2.44
  -7  23   4    4.39    3.80
   7 -23  -3    5.35    2.76
  -7  23   3    8.32    1.46
  -7  23   3    3.51    2.84
  -7  23   3    1.79    2.80
   7 -23  -2    8.67    2.98
  -7  23   2   14.17    4.07
   7 -23  -1   11.11    2.83
  -7  23   1    4.23    2.69
   7 -23   0    1.36    2.27
  -7  23   0   10.63    3.04
   7 -23   1    7.49    2.26
  -7  23  -1   14.75    2.84
  -7  23  -1    4.28    2.12
   7 -23   2    2.34    2.34
  -7  23  -2    4.50    2.76
  -7  23  -2    5.50    2.44
   7 -23   3    2.77    1.35
  -7  23  -3    0.63    2.84
  -7  23  -3    4.85    2.16
   7 -23   4    2.91    1.05
  -7  23  -4    6.37    3.04
  -7  23  -4    2.67    1.49
   7 -23   5    3.62    1.13
  -7  23  -5    4.00    3.60
  -7  23  -5    4.24    1.79
  -7  23  -6    3.42    3.49
  -7  23  -6    1.03    1.44
   7 -23   7   -0.37    3.96
  -7  23  -7    7.00    3.80
   7 -23   8    1.95    3.73
  -7  23  -8    0.52    3.23
   7 -21 -11    0.50    3.39
  -7  21  11   -2.74    3.75
   7 -21 -10    2.33    3.23
  -7  21  10    2.08    3.09
   7 -21  -9    0.06    2.98
  -7  21   9    4.19    2.99
   7 -21  -8    2.97    2.80
  -7  21   8    0.39    2.95
   7 -21  -7   -1.32    2.62
  -7  21   7    0.88    2.81
   7 -21  -6    3.88    2.55
  -7  21   6    1.98    2.83
   7 -21  -5    9.45    2.73
  -7  21   5    7.05    2.98
   7 -21  -4   -1.76    2.14
  -7  21   4    0.95    1.11
  -7  21   4    7.03    2.42
   7 -21  -3   -0.13    2.07
  -7  21   3    4.64    2.34
   7 -21  -2    1.33    2.43
  -7  21   2    6.46    1.65
  -7  21   2    4.90    2.27
   7 -21  -1    3.78    2.29
  -7  21   1    2.90    2.14
   7 -21   0    4.46    2.14
  -7  21   0    8.31    2.21
  -7  21   0    5.98    2.87
   7 -21   1    2.14    1.81
  -7  21  -1    0.25    1.73
   7 -21   2    2.22    2.17
  -7  21  -2    5.72    2.61
  -7  21  -2    1.51    2.16
   7 -21   3    4.46    1.36
  -7  21  -3    4.23    2.73
  -7  21  -3    1.79    1.49
   7 -21   4    2.44    1.19
  -7  21  -4    3.25    2.82
  -7  21  -4    2.68    1.79
   7 -21   5    2.57    1.25
  -7  21  -5    1.52    3.23
  -7  21  -5    2.44    1.26
  -7  21  -6   -0.81    3.31
  -7  21  -6    3.46    1.52
   7 -21   7   -0.67    3.43
  -7  21  -7    2.47    3.35
  -7  21  -7    2.22    1.26
   7 -21   8    9.49    3.41
  -7  21  -8   -1.20    3.12
   7 -21   9    0.83    3.17
  -7  21  -9   -0.13    2.53
  -7  21  -9    0.07    1.37
   7 -19 -11   -1.00    3.08
  -7  19  11    1.35    3.45
   7 -19 -10    4.68    3.19
  -7  19  10    6.19    3.13
   7 -19  -9    4.44    3.73
  -7  19   9    1.83    2.83
   7 -19  -8    2.78    2.63
  -7  19   8    2.60    3.75
   7 -19  -7    4.62    2.69
  -7  19   7    8.44    2.89
   7 -19  -6    0.97    2.28
  -7  19   6    2.96    2.53
   7 -19  -5    6.10    2.40
  -7  19   5    6.44    2.64
   7 -19  -4    6.27    1.94
  -7  19   4    0.12    1.33
  -7  19   4    3.13    2.25
   7 -19  -3    1.61    1.93
  -7  19   3    2.83    1.29
  -7  19   3    6.99    2.90
   7 -19  -2    2.19    2.10
  -7  19   2    2.35    2.06
   7 -19  -1    4.58    2.27
  -7  19   1    6.04    2.12
   7 -19   0    4.92    2.17
  -7  19   0   18.08    2.83
  -7  19   0    9.35    2.07
   7 -19   1    4.86    2.48
  -7  19  -1    3.91    1.66
   7 -19   2    2.25    1.64
  -7  19  -2    7.47    2.53
  -7  19  -2    6.51    2.00
   7 -19   3    3.09    1.81
  -7  19  -3    4.97    2.52
  -7  19  -3    1.97    1.81
   7 -19   4    3.48    1.67
  -7  19  -4    4.33    2.64
  -7  19  -4    3.25    1.27
   7 -19   5    3.22    1.39
  -7  19  -5    1.87    2.67
  -7  19  -5    2.24    1.37
   7 -19   6   -0.29    2.93
  -7  19  -6    0.26    2.86
  -7  19  -6   -0.19    0.86
   7 -19   7    2.78    2.98
  -7  19  -7    1.06    2.99
  -7  19  -7    0.97    0.81
   7 -19   8   -0.92    2.84
  -7  19  -8   -0.98    3.62
  -7  19  -8    0.71    1.05
   7 -19   9    1.78    4.01
  -7  19  -9   -1.31    2.44
  -7  19  -9    3.05    1.28
  -7  19  -9    4.06    1.77
   7 -19  10   -0.17    2.91
  -7  19 -10    0.84    1.01
   7 -17 -12    3.09    3.29
  -7  17  12    0.21    3.58
   7 -17 -11    2.82    3.00
  -7  17  11    1.79    2.90
   7 -17 -10   -0.48    2.73
  -7  17  10   -1.85    2.69
   7 -17  -9    1.00    2.41
  -7  17   9    0.43    2.60
   7 -17  -8    4.60    2.35
  -7  17   8   -0.88    2.56
   7 -17  -7    5.20    2.34
  -7  17   7    3.23    3.48
   7 -17  -6    3.46    2.22
  -7  17   6    6.85    2.50
   7 -17  -5    2.64    1.97
  -7  17   5    2.43    2.16
   7 -17  -4    1.49    1.79
  -7  17   4    6.11    2.71
   7 -17  -3    1.19    1.71
  -7  17   3    1.90    1.89
   7 -17  -2    2.04    1.93
  -7  17   2    3.25    1.43
  -7  17   2    3.05    1.86
   7 -17  -1    8.06    2.17
  -7  17   1   10.62    1.87
  -7  17   1    2.46    2.70
   7 -17   0    3.63    1.86
  -7  17   0    2.98    1.65
   7 -17   1    7.55    2.26
  -7  17  -1    5.19    2.54
  -7  17  -1    0.73    1.54
  -7  17  -2    3.91    2.15
  -7  17  -2    0.87    1.38
   7 -17   3    3.50    1.81
  -7  17  -3   -0.43    2.43
  -7  17  -3    4.01    1.70
   7 -17   4    3.18    1.72
  -7  17  -4   -1.01    2.47
  -7  17  -4    3.93    1.42
   7 -17   5    3.85    1.50
  -7  17  -5    1.82    2.51
  -7  17  -5    2.39    1.11
   7 -17   6    3.87    2.75
  -7  17  -6    1.20    2.84
  -7  17  -6    1.68    1.22
   7 -17   7    3.07    2.62
  -7  17  -7    5.18    2.82
  -7  17  -7    1.26    1.43
   7 -17   8   -0.55    2.52
  -7  17  -8    1.16    3.25
  -7  17  -8   -0.54    1.60
   7 -17   9    2.69    2.58
  -7  17  -9    0.80    2.11
  -7  17  -9    0.96    1.51
  -7  17  -9    2.38    1.80
   7 -17  10    1.59    2.66
  -7  17 -10    0.51    1.30
  -7  17 -10    3.25    1.78
   7 -17  11   -0.88    2.65
  -7  17 -11    0.47    1.16
  -7  17 -11    1.22    1.84
   7 -15 -13    3.81    3.42
  -7  15  13   -0.03    3.83
   7 -15 -12    3.13    3.09
  -7  15  12   -0.34    3.50
   7 -15 -11    1.52    2.88
  -7  15  11    3.62    3.81
   7 -15 -10    1.40    2.59
  -7  15  10    3.05    2.68
   7 -15  -9    1.40    2.38
  -7  15   9    3.16    2.55
   7 -15  -8    2.40    2.20
  -7  15   8    2.36    2.43
   7 -15  -7    4.22    2.19
  -7  15   7    4.19    2.44
   7 -15  -6    6.16    2.14
  -7  15   6    7.85    2.42
   7 -15  -5    3.52    1.97
  -7  15   5    8.90    2.17
   7 -15  -4    3.77    1.67
  -7  15   4    1.36    1.94
   7 -15  -3   10.28    2.20
  -7  15   3   11.46    2.26
   7 -15  -2   27.84    2.81
  -7  15   2   17.61    2.66
   7 -15  -1   40.84    3.33
  -7  15   1   35.69    3.12
   7 -15   0   39.22    4.56
  -7  15   0   36.78    3.55
  -7  15   0   39.74    4.14
   7 -15   1   31.03    2.83
  -7  15  -1   31.84    3.97
  -7  15  -1   26.41    3.41
   7 -15   2   19.48    1.94
  -7  15  -2   14.82    2.74
  -7  15  -2   13.85    2.44
   7 -15   3    8.55    1.34
  -7  15  -3    6.30    2.44
  -7  15  -3    5.05    1.20
   7 -15   4   10.52    1.57
  -7  15  -4    9.61    2.66
  -7  15  -4    8.86    1.25
   7 -15   5    9.98    1.83
  -7  15  -5    4.92    3.61
   7 -15   6    2.60    2.70
  -7  15  -6   -1.13    3.68
  -7  15  -6    7.68    1.81
   7 -15   7    2.22    2.52
  -7  15  -7    4.29    3.57
  -7  15  -7    5.09    1.83
   7 -15   8    2.31    2.33
  -7  15  -8   -0.93    3.00
  -7  15  -8    2.30    1.97
   7 -15   9    2.09    2.36
  -7  15  -9    1.62    1.71
  -7  15  -9    2.75    2.06
   7 -15  10    1.68    2.41
  -7  15 -10    2.99    1.56
  -7  15 -10    1.68    2.15
   7 -15  11    1.65    2.42
  -7  15 -11    2.04    1.50
  -7  15 -11    1.14    2.20
   7 -13 -13    5.42    3.53
  -7  13  13    6.83    5.49
   7 -13 -12    2.71    2.84
  -7  13  12   -2.93    2.78
   7 -13 -11    2.66    2.71
  -7  13  11    1.62    2.73
   7 -13 -10    3.03    2.44
  -7  13  10    3.31    2.61
   7 -13  -9    2.14    2.20
  -7  13   9    1.59    2.39
   7 -13  -8    0.24    2.06
  -7  13   8    2.80    2.30
   7 -13  -7    3.21    1.96
  -7  13   7    3.60    2.24
   7 -13  -6    4.30    1.85
  -7  13   6    4.50    2.09
   7 -13  -5    2.08    1.75
  -7  13   5    4.71    1.90
   7 -13  -4    2.36    1.55
  -7  13   4    2.72    1.86
   7 -13  -3   19.79    2.31
  -7  13   3   10.54    2.42
   7 -13  -2   37.57    3.31
  -7  13   2   37.53    3.39
   7 -13  -1   53.15    3.66
  -7  13   1   44.74    3.86
  -7  13   1   48.47    5.00
   7 -13   0   58.70    4.17
  -7  13   0   48.26    4.07
  -7  13   0   58.26    5.16
   7 -13   1   47.78    3.47
  -7  13  -1   43.82    4.02
  -7  13  -1   39.64    4.02
   7 -13   2   29.87    2.32
  -7  13  -2   35.67    3.95
  -7  13  -2   20.51    2.64
   7 -13   3   12.32    2.09
  -7  13  -3    7.56    2.52
  -7  13  -3   13.99    1.93
   7 -13   4   15.56    2.14
  -7  13  -4    6.18    2.59
  -7  13  -4   13.40    1.94
  -7  13  -5    2.49    2.42
  -7  13  -5   11.28    1.85
   7 -13   6    4.66    2.16
  -7  13  -6   -6.78    3.07
   7 -13   7   -0.12    2.26
  -7  13  -7    2.66    3.19
  -7  13  -7    6.71    1.61
   7 -13   8   -0.52    2.07
  -7  13  -8    2.69    1.95
  -7  13  -8    4.37    2.04
   7 -13   9    1.79    2.03
  -7  13  -9    1.49    1.82
  -7  13  -9   -0.64    2.01
   7 -13  10    0.76    2.19
  -7  13 -10    5.38    1.79
  -7  13 -10    1.15    2.14
   7 -13  11    2.44    2.20
  -7  13 -11    2.10    1.76
   7 -13  12   -0.68    2.26
  -7  13 -12    3.12    1.73
  -7  13 -12    4.30    2.13
   7 -11 -13    0.84    3.00
  -7  11  13   -2.89    3.60
   7 -11 -12    2.44    2.84
  -7  11  12   -0.08    2.83
   7 -11 -11    8.15    2.76
  -7  11  11    0.91    2.80
   7 -11 -10    4.42    2.30
  -7  11  10   -0.64    2.45
   7 -11  -9    1.53    2.05
  -7  11   9    0.40    2.24
   7 -11  -8    3.75    1.94
  -7  11   8    1.87    2.26
   7 -11  -7    3.22    1.78
  -7  11   7    2.14    2.08
   7 -11  -6   12.91    2.67
  -7  11   6    7.71    2.19
   7 -11  -5    4.67    1.58
  -7  11   5    8.11    1.94
   7 -11  -4    4.82    1.62
  -7  11   4    8.87    1.86
   7 -11  -3   10.45    1.94
  -7  11   3   10.97    2.07
   7 -11  -2   24.41    2.52
  -7  11   2   21.26    3.44
   7 -11  -1   45.53    3.27
  -7  11   1   41.97    3.50
   7 -11   0   44.75    3.50
  -7  11   0   49.57    3.79
  -7  11   0   44.20    3.36
   7 -11   1   29.01    2.63
  -7  11  -1   31.39    2.99
  -7  11  -1   29.01    2.21
   7 -11   2   27.76    2.38
   7 -11   3   17.33    1.81
  -7  11  -3   11.96    2.37
  -7  11  -3   14.21    1.51
   7 -11   4   12.80    1.65
  -7  11  -4   10.33    2.41
  -7  11  -4   13.63    1.65
  -7  11  -5    2.62    2.17
  -7  11  -5   12.64    1.65
   7 -11   6    0.42    1.92
  -7  11  -6   -0.32    2.77
  -7  11  -6    4.88    1.50
   7 -11   7   -3.58    2.48
  -7  11  -7    1.09    1.91
  -7  11  -7    4.42    1.99
   7 -11   8    0.56    1.88
  -7  11  -8    0.36    1.66
  -7  11  -8    4.65    1.38
   7 -11   9    3.01    1.87
  -7  11  -9    1.52    1.51
  -7  11  -9    0.96    1.83
   7 -11  10    1.70    1.89
  -7  11 -10   -2.35    1.88
  -7  11 -10    1.61    1.41
   7 -11  11    2.91    2.57
  -7  11 -11    0.00    2.18
  -7  11 -11    1.02    2.06
   7 -11  12    1.07    2.66
  -7  11 -12    1.79    1.98
  -7  11 -12    3.73    2.26
   7  -9 -14    0.90    3.06
  -7   9  14   -1.19    3.75
   7  -9 -13    8.54    4.37
  -7   9  13    2.67    3.92
   7  -9 -12   -2.92    3.83
  -7   9  12    6.81    2.92
   7  -9 -11    2.93    3.60
  -7   9  11    5.58    2.81
   7  -9 -10    3.42    2.20
  -7   9  10   -0.07    2.40
   7  -9  -9    9.52    2.34
  -7   9   9    6.83    2.57
   7  -9  -8   12.47    2.48
  -7   9   8   18.86    3.73
   7  -9  -7   14.53    2.38
  -7   9   7   18.92    2.71
   7  -9  -6   19.09    2.39
  -7   9   6   21.70    2.81
   7  -9  -5   15.19    2.03
  -7   9   5   19.51    2.46
   7  -9  -4   19.03    2.25
  -7   9   4   20.45    2.46
   7  -9  -3   84.03    5.24
  -7   9   3   74.52    5.69
   7  -9  -2  103.65    6.14
  -7   9   2  106.39    7.39
   7  -9  -1  121.60    7.70
  -7   9   1  125.05    7.76
   7  -9   0  122.78    7.31
  -7   9   0  111.76    6.56
   7  -9   1  107.49    6.43
  -7   9  -1  109.10    7.16
  -7   9  -1  118.23    6.49
   7  -9   2   93.01    5.14
  -7   9  -2   80.97    5.84
  -7   9  -2   76.76    4.26
   7  -9   3   25.47    2.29
  -7   9  -3   23.24    2.57
  -7   9  -3   26.25    2.79
   7  -9   4   43.50    3.82
  -7   9  -4   41.69    3.72
  -7   9  -4   38.55    3.77
  -7   9  -5   33.25    3.37
  -7   9  -5   43.88    3.94
   7  -9   6   25.77    2.82
  -7   9  -6   23.19    3.76
  -7   9  -6   22.27    2.97
   7  -9   7    8.96    2.97
  -7   9  -7   15.03    2.26
  -7   9  -7   16.28    2.01
   7  -9   8    1.37    1.77
  -7   9  -8    3.36    1.09
  -7   9  -8    7.87    2.06
   7  -9   9   -0.89    1.65
  -7   9  -9    0.98    1.55
  -7   9  -9    2.19    1.28
   7  -9  10    3.62    2.48
  -7   9 -10    4.95    2.25
  -7   9 -10    4.06    1.97
   7  -9  11    7.73    2.49
  -7   9 -11    4.29    2.35
  -7   9 -11    2.28    2.16
   7  -9  12    2.17    2.37
  -7   9 -12    3.73    2.23
  -7   9 -12    1.21    1.70
  -7   9 -13    0.13    3.34
  -7   9 -13    1.85    1.85
   7  -7 -14   -1.16    3.04
  -7   7  14   -0.70    3.72
   7  -7 -13   -3.04    2.81
  -7   7  13    3.77    3.42
   7  -7 -12    4.88    2.83
  -7   7  12    2.30    3.93
   7  -7 -11    9.25    2.67
  -7   7  11    3.00    2.86
   7  -7 -10   -0.67    2.12
  -7   7  10   -1.93    2.26
   7  -7  -9    1.05    1.94
  -7   7   9    1.51    2.16
   7  -7  -8    1.94    1.80
  -7   7   8    5.39    2.09
   7  -7  -7   13.07    1.98
  -7   7   7    6.79    2.20
   7  -7  -6    4.38    1.48
  -7   7   6    6.27    1.89
   7  -7  -5    2.76    1.35
  -7   7   5    0.64    1.61
   7  -7  -4    0.87    1.37
  -7   7   4    0.53    1.53
   7  -7  -3   13.84    1.88
  -7   7   3   14.07    2.19
   7  -7  -2   15.63    1.92
  -7   7   2   19.74    2.27
   7  -7  -1   16.94    2.07
  -7   7   1   14.89    1.94
   7  -7   0   15.89    2.16
  -7   7   0   19.97    2.13
   7  -7   1   25.61    2.25
  -7   7  -1   25.01    2.75
  -7   7  -1   22.84    2.01
   7  -7   2   16.73    1.79
  -7   7  -2   16.38    2.05
  -7   7  -2   16.23    1.78
   7  -7   3    0.93    1.77
  -7   7  -3    3.40    1.72
  -7   7  -3   -0.16    1.27
   7  -7   4    4.62    1.43
  -7   7  -4    1.29    2.10
  -7   7  -4    3.88    1.43
  -7   7  -5    1.92    1.49
  -7   7  -5    5.87    1.41
   7  -7   6    4.27    1.56
  -7   7  -6    2.65    2.05
  -7   7  -6    5.22    2.02
   7  -7   7    1.97    1.95
  -7   7  -7    1.08    1.30
  -7   7  -7    2.59    1.34
   7  -7   8    0.35    1.43
  -7   7  -8    1.25    0.98
  -7   7  -8    1.78    1.32
   7  -7   9    0.36    1.41
  -7   7  -9   -2.04    1.59
  -7   7  -9    1.85    1.43
   7  -7  10    2.72    2.07
  -7   7 -10    3.50    2.27
  -7   7 -10    0.88    2.20
   7  -7  11    0.66    2.10
  -7   7 -11    3.43    2.41
  -7   7 -11    3.08    2.46
   7  -7  12    0.03    2.05
  -7   7 -12    3.55    2.41
  -7   7 -12    1.85    2.06
   7  -7  13    0.78    2.10
  -7   7 -13    1.55    2.91
  -7   7 -13    4.70    2.35
   7  -5 -14    0.50    2.81
  -7   5  14   -0.19    3.56
   7  -5 -13   -1.26    2.77
  -7   5  13    5.54    3.37
   7  -5 -12    5.74    2.66
  -7   5  12   -0.42    2.74
   7  -5 -11    2.84    2.36
  -7   5  11   -0.90    3.37
   7  -5 -10    3.90    2.13
  -7   5  10    3.70    2.33
   7  -5  -9    0.62    1.87
  -7   5   9    2.94    2.11
   7  -5  -8    0.30    2.34
  -7   5   8    2.34    1.84
   7  -5  -7    1.61    1.53
  -7   5   7   -0.16    1.71
   7  -5  -6    4.34    1.48
  -7   5   6    3.47    1.72
   7  -5  -5    2.55    1.47
  -7   5   5    2.75    1.57
   7  -5  -4    5.41    1.56
  -7   5   4    8.49    1.75
   7  -5  -3    2.80    1.36
  -7   5   3    5.22    1.69
   7  -5  -2    7.46    1.65
  -7   5   2    7.85    1.68
   7  -5  -1   46.34    3.38
  -7   5   1   47.70    3.51
   7  -5   0   38.97    2.93
  -7   5   0   40.05    2.76
   7  -5   1   10.92    1.73
  -7   5  -1    8.14    1.62
   7  -5   2    7.92    2.22
  -7   5  -2    6.05    2.12
  -7   5  -2    6.45    1.53
   7  -5   3   12.52    1.80
  -7   5  -3   15.19    2.64
  -7   5  -3   12.43    1.65
  -7   5  -4    8.09    1.93
  -7   5  -4    7.01    1.56
  -7   5  -5    5.91    1.32
  -7   5  -5    7.82    1.45
  -7   5  -6    1.83    1.12
  -7   5  -6    0.78    1.33
   7  -5   7    0.05    1.62
  -7   5  -7   -0.25    1.20
  -7   5  -7   -0.08    1.96
   7  -5   8    3.27    1.28
  -7   5  -8    3.75    1.69
  -7   5  -8   -0.29    1.56
   7  -5   9    0.76    1.28
  -7   5  -9    4.70    2.32
  -7   5  -9    1.19    1.55
   7  -5  10    0.26    1.75
  -7   5 -10   -1.21    2.31
  -7   5 -10    2.30    2.29
   7  -5  11    0.51    1.85
  -7   5 -11    6.94    2.56
  -7   5 -11   -0.39    2.73
   7  -5  12    1.15    1.85
  -7   5 -12    1.46    2.65
  -7   5 -12    2.29    2.26
   7  -5  13    4.67    1.85
  -7   5 -13    0.69    3.14
  -7   5 -13   -2.63    2.56
   7  -3 -14    7.60    3.16
  -7   3  14    6.56    3.97
   7  -3 -13    4.43    2.84
  -7   3  13    5.16    3.52
   7  -3 -12    6.80    2.74
  -7   3  12    5.38    2.88
   7  -3 -11    6.10    2.49
  -7   3  11    2.86    3.53
   7  -3 -10    4.01    2.75
  -7   3  10    0.44    2.14
   7  -3  -9   13.76    2.56
  -7   3   9   15.54    3.67
   7  -3  -8   24.59    2.95
  -7   3   8   29.02    4.03
   7  -3  -7   31.42    2.90
  -7   3   7   37.28    4.33
   7  -3  -6   48.43    3.76
  -7   3   6   57.30    4.10
   7  -3  -5   42.45    3.60
  -7   3   5   56.92    3.76
   7  -3  -4   40.07    3.18
  -7   3   4   46.13    3.49
   7  -3  -3  152.75    9.07
  -7   3   3  170.03   10.31
   7  -3  -2  214.70   13.62
  -7   3   2  213.87   13.99
   7  -3  -1  225.16   14.88
  -7   3   1  237.10   15.20
   7  -3   0  224.81   14.36
  -7   3   0  228.58   17.05
   7  -3   1  199.77   11.81
  -7   3  -1  208.82   12.28
   7  -3   2  162.28    9.34
  -7   3  -2  147.80    9.10
  -7   3  -2  158.89    9.01
   7  -3   3   50.63    3.54
  -7   3  -3   53.70    3.13
  -7   3  -3   42.20    3.35
  -7   3  -4   66.15    3.97
  -7   3  -4   48.62    4.79
  -7   3  -5   65.07    3.74
  -7   3  -5   56.80    4.35
  -7   3  -6   28.74    1.99
  -7   3  -6   36.04    3.01
   7  -3   7   29.57    2.19
  -7   3  -7   22.88    3.48
   7  -3   8   10.16    1.95
  -7   3  -8   12.01    2.20
  -7   3  -8   12.03    2.07
   7  -3   9    2.33    1.15
  -7   3  -9    2.83    1.78
  -7   3  -9   -0.94    1.77
   7  -3  10    4.85    1.72
  -7   3 -10    3.81    2.00
  -7   3 -10    3.22    2.21
   7  -3  11    2.62    1.70
  -7   3 -11    1.10    2.08
  -7   3 -11    6.56    3.33
   7  -3  12    0.61    1.64
  -7   3 -12   -1.61    2.78
  -7   3 -12    4.61    3.61
   7  -3  13    2.29    1.69
   7  -1 -14   -3.65    2.65
  -7   1  14    2.43    3.29
   7  -1 -13    1.76    2.52
  -7   1  13   -0.92    3.08
   7  -1 -12    0.77    2.32
  -7   1  12   -0.54    2.41
   7  -1 -11   -3.73    2.16
  -7   1  11    4.71    3.05
   7  -1 -10    2.53    2.03
  -7   1  10    3.83    2.85
   7  -1  -9    0.35    1.70
  -7   1   9    4.67    2.05
   7  -1  -8   -0.90    2.11
  -7   1   8    1.62    1.69
   7  -1  -7   -0.28    1.41
  -7   1   7   -0.73    1.57
   7  -1  -6    3.16    1.50
  -7   1   6    0.32    1.43
   7  -1  -5   -1.27    1.92
  -7   1   5   -4.17    1.97
   7  -1  -4    0.81    1.24
  -7   1   4    2.46    1.44
   7  -1  -3    6.25    1.60
  -7   1   3    5.78    1.57
   7  -1  -2    8.57    1.84
  -7   1   2   10.46    1.88
   7  -1  -1    6.68    1.54
  -7   1   1    3.49    1.62
   7  -1   0    6.07    1.44
  -7   1   0    2.88    1.51
   7  -1   1    8.87    1.72
  -7   1  -1    7.41    1.57
   7  -1   2    6.90    1.68
  -7   1  -2    9.27    1.68
  -7   1  -3    1.23    1.25
  -7   1  -3    2.18    1.32
  -7   1  -4    0.76    1.07
  -7   1  -4   -1.94    1.92
  -7   1  -5   -0.80    0.87
  -7   1  -5    0.20    1.39
  -7   1  -6    1.32    0.87
  -7   1  -6    0.34    1.42
  -7   1  -7    0.36    0.91
  -7   1  -7    0.61    1.53
   7  -1   8   -0.27    1.30
  -7   1  -8   -0.98    1.31
  -7   1  -8    0.94    1.71
   7  -1   9    0.27    1.33
  -7   1  -9    2.56    1.70
  -7   1  -9   -0.41    1.96
   7  -1  10    2.01    1.44
  -7   1 -10    0.67    1.94
  -7   1 -10    2.62    2.37
   7  -1  11   -0.74    1.45
  -7   1 -11   -0.84    2.07
  -7   1 -11    1.61    2.65
   7  -1  12    0.71    1.51
  -7   1 -12    1.37    2.22
  -7   1 -12    2.46    3.00
   7  -1  13    1.40    1.56
  -7   1 -13    3.24    3.26
   7   1 -14    3.12    2.36
  -7  -1  14    2.09    2.78
   7   1 -13    1.22    2.23
  -7  -1  13    2.06    2.91
   7   1 -12   -1.01    2.04
  -7  -1  12    3.35    3.01
   7   1 -11    1.14    1.88
  -7  -1  11   -2.00    2.87
   7   1 -10   -1.10    2.34
  -7  -1  10    2.63    2.56
   7   1  -9   -0.53    1.61
  -7  -1   9    1.55    1.81
   7   1  -8    2.85    1.68
  -7  -1   8   -0.54    1.59
   7   1  -7    1.14    1.56
  -7  -1   7   -0.05    1.45
   7   1  -6   -1.41    1.89
  -7  -1   6    0.93    1.33
   7   1  -5    1.28    1.61
  -7  -1   5   -0.96    1.29
   7   1  -4    3.26    1.76
  -7  -1   4   -1.31    1.34
   7   1  -3   11.28    1.75
  -7  -1   3    8.60    1.82
   7   1  -2    7.83    1.67
  -7  -1   2   11.23    1.67
   7   1  -1    3.94    1.49
  -7  -1   1    4.82    1.52
   7   1   0    3.04    1.44
  -7  -1   0    3.81    1.47
   7   1   1    9.08    1.56
  -7  -1  -1    7.36    1.66
   7   1   2    3.80    1.58
  -7  -1  -2    8.51    1.52
  -7  -1  -3    1.59    1.02
  -7  -1  -3    0.15    1.46
  -7  -1  -4    0.24    0.79
  -7  -1  -4    0.31    1.82
  -7  -1  -5    1.15    0.63
  -7  -1  -5    0.32    1.43
  -7  -1  -6   -1.40    1.48
  -7  -1  -7    7.45    2.31
  -7  -1  -7   -0.84    1.70
  -7  -1  -8    5.94    2.33
  -7  -1  -8    6.15    2.28
   7   1   9   -0.59    1.25
  -7  -1  -9    3.63    1.80
   7   1  10    1.17    1.32
  -7  -1 -10    2.01    2.03
   7   1  11    3.62    1.45
  -7  -1 -11    1.66    2.25
   7   1  12    4.82    1.82
  -7  -1 -12   -0.86    2.42
   7   1  13    4.19    1.95
   7   3 -14    0.22    2.15
  -7  -3  14    1.29    3.28
   7   3 -13    4.86    2.31
  -7  -3  13    5.27    3.96
   7   3 -12    6.24    2.26
  -7  -3  12    6.44    3.26
   7   3 -11    5.32    2.15
  -7  -3  11    9.04    3.14
   7   3 -10   -0.93    1.84
  -7  -3  10    2.17    2.42
   7   3  -9   16.63    3.35
  -7  -3   9   15.12    2.51
   7   3  -8   30.18    3.09
  -7  -3   8   27.67    2.96
   7   3  -7   40.74    3.48
  -7  -3   7   38.04    4.10
   7   3  -6   55.85    4.72
  -7  -3   6   55.45    3.83
   7   3  -5   54.45    4.77
  -7  -3   5   58.74    3.71
   7   3  -4   54.62    3.55
  -7  -3   4   47.41    4.12
   7   3  -3  180.42   10.90
  -7  -3   3  197.77   14.18
   7   3  -2  192.96   11.78
  -7  -3   2  214.59   12.67
   7   3  -1  213.29   12.35
  -7  -3   1  211.57   12.66
   7   3   0  180.65   10.38
  -7  -3   0  203.51   11.23
   7   3   1  203.96   11.72
  -7  -3  -1  179.10   10.88
  -7  -3  -2  159.66   10.10
  -7  -3  -3   45.82    2.14
  -7  -3  -3   32.54    3.05
  -7  -3  -4   52.70    1.84
  -7  -3  -4   43.54    3.45
  -7  -3  -5   42.56    3.29
  -7  -3  -6   24.72    2.08
  -7  -3  -6   31.21    2.79
  -7  -3  -7   18.24    2.70
  -7  -3  -8    8.96    2.07
  -7  -3  -9    1.10    1.48
  -7  -3 -10    6.41    3.15
  -7  -3 -11    2.17    2.37
   7   3  12    0.91    1.52
  -7  -3 -12    1.17    2.84
  -7  -3 -13   -2.32    3.13
   7   5 -14    2.68    3.05
  -7  -5  14    2.99    3.15
   7   5 -13    0.01    2.43
  -7  -5  13    0.43    3.20
   7   5 -12    3.83    2.91
  -7  -5  12    3.18    2.79
   7   5 -11    3.13    2.04
  -7  -5  11    3.55    2.64
   7   5 -10    1.87    1.77
  -7  -5  10    1.68    2.32
   7   5  -9    0.43    2.25
  -7  -5   9   -1.14    1.60
   7   5  -8    0.68    1.43
  -7  -5   8    1.20    1.45
   7   5  -7    4.00    1.32
  -7  -5   7   -0.09    1.34
   7   5  -6    5.21    1.46
  -7  -5   6    7.40    1.86
   7   5  -5    7.66    1.44
  -7  -5   5    5.56    1.83
   7   5  -4   11.15    1.51
  -7  -5   4   11.92    1.62
   7   5  -3   10.57    1.94
  -7  -5   3    8.96    2.05
   7   5  -2    8.46    1.36
  -7  -5   2    8.72    1.56
   7   5  -1   39.21    3.01
  -7  -5   1   34.27    2.43
   7   5   0   32.17    2.46
  -7  -5   0   36.99    2.62
  -7  -5  -1    2.77    1.46
  -7  -5  -2    4.64    1.44
  -7  -5  -3    5.65    1.49
  -7  -5  -4    3.37    1.36
  -7  -5  -5    3.76    1.27
  -7  -5  -6    6.06    2.15
  -7  -5  -7    2.06    1.92
  -7  -5  -8    1.20    1.79
  -7  -5  -9    0.31    1.65
  -7  -5 -10    0.11    2.09
  -7  -5 -11    0.09    3.09
  -7  -5 -12    1.24    2.92
  -7  -5 -13    5.32    3.45
   7   7 -14    0.96    2.63
   7   7 -13    0.02    2.17
  -7  -7  13    0.72    1.86
   7   7 -12    4.87    2.56
  -7  -7  12   -0.40    2.08
   7   7 -11    2.93    1.89
  -7  -7  11    4.48    1.82
   7   7 -10    0.53    2.05
  -7  -7  10    1.30    2.05
   7   7  -9    2.31    1.97
  -7  -7   9    1.07    1.54
   7   7  -8    7.25    2.01
  -7  -7   8    1.56    2.01
   7   7  -7    2.70    1.88
  -7  -7   7    6.35    1.33
   7   7  -6    8.76    1.81
  -7  -7   6    5.03    1.29
   7   7  -5    3.01    1.53
  -7  -7   5    6.67    1.22
   7   7  -4    1.45    1.03
  -7  -7   4    3.63    1.19
   7   7  -3   16.59    1.43
  -7  -7   3   15.95    1.75
   7   7  -2   21.18    2.12
  -7  -7   2   20.29    1.90
   7   7  -1   14.29    1.59
  -7  -7   1   13.14    1.66
  -7  -7   0   11.34    1.53
  -7  -7  -1   12.75    1.65
  -7  -7  -2   10.08    1.55
  -7  -7  -3    0.66    1.10
  -7  -7  -5    7.96    2.33
  -7  -7  -6    3.26    2.15
  -7  -7  -7    1.41    2.05
  -7  -7  -8    1.76    1.97
  -7  -7  -9   -1.86    2.62
  -7  -7 -10    4.61    2.02
  -7  -7 -11   -0.74    2.41
  -7  -7 -12    2.41    4.24
  -7  -7 -13    2.44    2.85
   7   9 -14    3.07    2.27
   7   9 -13    0.89    2.30
  -7  -9  13    2.38    2.31
   7   9 -12    2.34    2.30
  -7  -9  12    4.58    2.62
   7   9 -11    3.72    2.34
  -7  -9  11    3.00    2.13
   7   9 -10    0.15    1.93
  -7  -9  10    1.12    1.39
   7   9  -9    2.13    1.94
  -7  -9   9    6.63    2.03
   7   9  -8   20.35    1.86
  -7  -9   8   19.75    2.67
   7   9  -7   30.01    1.96
  -7  -9   7   32.37    2.85
   7   9  -6   38.47    2.12
  -7  -9   6   40.44    3.08
   7   9  -5   30.36    2.08
  -7  -9   5   39.34    2.54
   7   9  -4   22.74    2.01
  -7  -9   4   29.74    2.53
   7   9  -3   78.34    3.62
  -7  -9   3   83.66    4.28
   7   9  -2  109.96    5.25
  -7  -9   2   97.03    5.07
  -7  -9   1  116.95    6.10
  -7  -9   0  110.68    7.31
  -7  -9  -1   85.89    4.21
  -7  -9  -2   76.15    5.19
  -7  -9  -4   24.68    3.17
  -7  -9  -5   28.26    3.56
  -7  -9  -6   23.70    3.50
  -7  -9  -7   17.06    3.02
  -7  -9  -8    8.01    2.54
  -7  -9  -9   -0.98    2.07
  -7  -9 -10    3.84    3.07
  -7  -9 -11    2.86    2.52
  -7  -9 -12   -2.74    3.29
  -7  -9 -13   -3.13    3.00
   7  11 -13    0.49    2.05
  -7 -11  13   -0.20    2.03
   7  11 -12    0.87    1.80
  -7 -11  12    2.79    1.85
   7  11 -11    0.25    1.39
  -7 -11  11    2.21    1.70
   7  11 -10    0.43    1.10
  -7 -11  10    2.14    1.62
   7  11  -9   -0.57    0.96
  -7 -11   9    3.50    1.65
   7  11  -8    2.30    0.74
  -7 -11   8    2.77    1.57
   7  11  -7    4.21    0.84
  -7 -11   7    5.33    1.48
   7  11  -6    8.72    1.31
  -7 -11   6   10.43    1.56
   7  11  -5   12.88    1.43
  -7 -11   5   11.50    1.58
   7  11  -4   13.32    1.69
  -7 -11   4   15.85    1.78
  -7 -11   3   19.55    2.13
  -7 -11   2   21.37    1.58
  -7 -11   1   34.00    1.88
  -7 -11   0   33.00    1.92
  -7 -11  -1   12.81    1.17
  -7 -11  -1   20.11    1.90
  -7 -11  -2   11.36    1.13
  -7 -11  -2    9.76    2.05
  -7 -11  -3    4.40    0.45
  -7 -11  -3    7.72    2.03
  -7 -11  -4    6.40    2.22
  -7 -11  -5   14.63    2.82
  -7 -11  -6    7.17    2.37
  -7 -11  -7    4.99    2.41
  -7 -11  -8    7.98    2.65
  -7 -11  -9   -1.37    2.27
  -7 -11 -10    6.23    2.60
  -7 -11 -11    1.35    2.69
  -7 -11 -12    4.56    2.91
  -7 -13  13    3.16    3.97
   7  13 -12    0.38    1.09
  -7 -13  12    0.16    3.23
  -7 -13  12    1.30    1.58
  -7 -13  11    6.70    3.11
  -7 -13  11    2.39    1.72
   7  13 -10    1.58    1.03
  -7 -13  10    0.14    1.32
   7  13  -9    0.49    0.93
  -7 -13   9   -1.04    1.24
   7  13  -8    5.49    1.19
  -7 -13   8    4.18    1.47
   7  13  -7    7.66    1.28
  -7 -13   7    7.93    1.45
   7  13  -6   10.13    1.43
  -7 -13   6    9.57    1.44
  -7 -13   5   14.43    1.65
  -7 -13   4   10.73    1.20
  -7 -13   3   25.54    2.14
  -7 -13   2   20.29    1.70
  -7 -13   2   33.14    2.20
  -7 -13   1   35.65    2.53
  -7 -13   1   36.72    1.95
  -7 -13   0   31.19    2.28
  -7 -13   0   43.41    3.04
  -7 -13  -1   22.31    1.78
  -7 -13  -1   23.07    1.69
  -7 -13  -2    9.87    0.96
  -7 -13  -2   19.50    2.32
  -7 -13  -3    4.04    0.56
  -7 -13  -3    6.70    2.00
  -7 -13  -4    6.79    2.26
  -7 -13  -5   12.64    2.66
  -7 -13  -6    2.40    2.28
  -7 -13  -7    4.21    2.48
  -7 -13  -8    6.72    2.74
  -7 -13  -9   -0.09    2.37
  -7 -13 -10    1.87    2.99
  -7 -13 -11    6.12    3.37
  -7 -13 -12    5.05    2.82
  -7 -15  12    4.89    4.25
   7  15 -11    1.45    0.98
  -7 -15  11   -2.95    3.56
  -7 -15  11    0.70    1.08
   7  15 -10   -0.38    0.88
  -7 -15  10    0.13    3.17
  -7 -15  10    2.20    1.15
   7  15  -9    1.20    0.96
  -7 -15   9   -1.07    2.73
  -7 -15   9    2.59    1.07
  -7 -15   8    7.71    2.74
  -7 -15   8    5.11    1.24
  -7 -15   7    3.93    2.53
  -7 -15   7    7.69    1.53
  -7 -15   6    5.66    2.22
  -7 -15   6    8.79    1.25
  -7 -15   5    6.55    1.96
  -7 -15   5    7.19    1.33
  -7 -15   4    1.22    1.58
  -7 -15   4    3.58    1.23
  -7 -15   3   12.95    2.28
  -7 -15   3    9.14    1.09
  -7 -15   2   15.24    1.72
  -7 -15   2   15.15    1.11
  -7 -15   1   24.99    2.09
  -7 -15   1   28.23    2.34
  -7 -15   0   27.31    2.56
  -7 -15   0   37.12    2.69
  -7 -15   0   35.09    2.39
  -7 -15  -1   13.10    1.12
  -7 -15  -1   12.41    2.10
  -7 -15  -1   19.85    2.05
  -7 -15  -2    7.33    1.98
  -7 -15  -3    2.91    0.77
  -7 -15  -3    0.00    1.89
  -7 -15  -4    8.90    2.33
  -7 -15  -5    6.22    2.38
  -7 -15  -6   12.43    2.91
  -7 -15  -7    5.73    2.67
  -7 -15  -8    3.70    2.70
  -7 -15  -9   -1.61    3.04
  -7 -15 -10    1.45    3.25
  -7 -15 -11   -0.38    2.80
  -7 -15 -12    3.26    3.06
  -7 -17  12    5.86    5.29
  -7 -17  11   -3.64    4.28
  -7 -17  10    1.60    3.67
  -7 -17   9    5.16    3.55
  -7 -17   8    5.47    2.93
  -7 -17   8    1.07    0.87
  -7 -17   7    3.90    2.59
  -7 -17   7    1.61    0.97
  -7 -17   6    7.45    2.33
  -7 -17   6    3.36    0.99
  -7 -17   5    3.10    2.03
  -7 -17   4   -1.48    1.70
  -7 -17   4    0.78    1.09
  -7 -17   3    8.54    1.81
  -7 -17   3    2.41    1.10
  -7 -17   2    0.44    1.45
  -7 -17   2    3.47    1.53
  -7 -17   2    2.57    1.18
  -7 -17   1    2.85    1.36
  -7 -17   1    3.22    1.29
  -7 -17   1    4.80    1.12
  -7 -17   0    3.02    1.03
  -7 -17   0    1.14    1.27
  -7 -17  -1    1.80    1.24
  -7 -17  -1    3.47    1.46
  -7 -17  -1    0.76    1.46
  -7 -17  -2    2.13    0.97
  -7 -17  -2    3.41    1.62
  -7 -17  -3    1.54    0.71
  -7 -17  -3    3.33    1.77
  -7 -17  -4    2.75    2.01
  -7 -17  -5    3.32    2.29
  -7 -17  -6   -1.29    2.36
  -7 -17  -7    4.16    2.71
  -7 -17  -8    1.31    3.07
  -7 -17  -9    1.80    3.28
  -7 -17 -10    4.10    3.10
  -7 -17 -11   -0.33    2.97
  -7 -19  11    5.36    5.01
  -7 -19  10    4.53    4.56
  -7 -19   9    1.66    3.81
  -7 -19   8    1.74    3.38
  -7 -19   7    7.56    2.94
  -7 -19   7    1.60    0.67
  -7 -19   6    6.92    2.55
  -7 -19   6    1.54    0.90
  -7 -19   6    1.44    0.76
  -7 -19   5    2.63    2.19
  -7 -19   5    1.60    1.04
  -7 -19   5    1.05    1.06
  -7 -19   4    0.11    1.97
  -7 -19   4    2.34    1.19
  -7 -19   4    1.09    0.98
  -7 -19   3    3.43    1.79
  -7 -19   3    1.55    1.32
  -7 -19   3    0.31    0.93
  -7 -19   2   -0.39    1.43
  -7 -19   2    1.85    1.12
  -7 -19   2    2.01    1.28
  -7 -19   1    2.54    1.41
  -7 -19   1    4.28    1.30
  -7 -19   1    9.32    1.69
  -7 -19   0    5.02    1.32
  -7 -19   0    8.65    1.96
  -7 -19   0    6.40    2.01
  -7 -19  -1    2.38    0.97
  -7 -19  -1   -0.39    1.41
  -7 -19  -2    1.10    1.31
  -7 -19  -2    0.18    1.56
  -7 -19  -3    3.17    1.88
  -7 -19  -4    1.51    2.03
  -7 -19  -5    3.10    2.33
  -7 -19  -6    4.36    2.56
  -7 -19  -7    3.88    3.16
  -7 -19  -8    2.64    3.26
  -7 -19  -9    5.10    3.13
  -7 -19 -10    6.04    3.37
  -7 -21  10    5.30    4.75
  -7 -21   9    0.36    3.79
  -7 -21   8    2.59    3.47
  -7 -21   7    1.31    2.97
  -7 -21   6    5.22    2.64
  -7 -21   6    1.54    0.83
  -7 -21   5    1.54    2.31
  -7 -21   5    3.05    1.09
  -7 -21   5    0.70    0.93
  -7 -21   4   -0.11    1.84
  -7 -21   4    0.82    1.24
  -7 -21   4    0.30    0.85
  -7 -21   3    2.59    1.78
  -7 -21   3    0.13    1.42
  -7 -21   3    1.80    1.27
  -7 -21   2   -0.42    1.57
  -7 -21   2    4.29    1.56
  -7 -21   2    0.13    1.09
  -7 -21   1    0.52    1.48
  -7 -21   1    3.98    1.74
  -7 -21   1    2.70    1.65
  -7 -21   0    3.65    1.35
  -7 -21   0    4.08    1.92
  -7 -21   0    1.62    1.94
  -7 -21  -1    1.40    1.04
  -7 -21  -1    1.94    1.46
  -7 -21  -2    0.01    2.47
  -7 -21  -2    0.42    1.60
  -7 -21  -3    0.18    2.48
  -7 -21  -4    0.93    2.04
  -7 -21  -5    1.02    2.62
  -7 -21  -6   -0.87    2.86
  -7 -21  -7   -0.30    3.01
  -7 -21  -8    2.19    2.88
  -7 -21  -9    2.96    3.11
  -7 -21 -10   -2.38    3.36
  -7 -23   9   -0.44    3.90
  -7 -23   8    5.69    3.33
  -7 -23   7    5.25    2.98
  -7 -23   6    6.00    2.72
  -7 -23   5    7.54    2.45
  -7 -23   5    4.19    1.45
  -7 -23   4    2.87    2.18
  -7 -23   4    3.68    1.75
  -7 -23   4    3.25    1.06
  -7 -23   3    9.38    2.83
  -7 -23   3    3.65    1.77
  -7 -23   3    2.51    1.46
  -7 -23   2    5.23    2.04
  -7 -23   2    6.00    1.79
  -7 -23   1   10.21    2.03
  -7 -23   1    5.52    2.38
  -7 -23   1    9.82    2.06
  -7 -23   0   12.23    2.48
  -7 -23   0   14.17    2.82
  -7 -23   0   13.47    2.55
  -7 -23  -1    5.62    2.10
  -7 -23  -1    2.80    1.77
  -7 -23  -2    1.53    1.44
  -7 -23  -2    3.12    1.78
  -7 -23  -3    4.58    2.42
  -7 -23  -4    8.27    3.94
  -7 -23  -5    5.13    3.00
  -7 -23  -6   -2.06    3.06
  -7 -23  -7    3.32    2.86
  -7 -23  -8    0.85    2.93
  -7 -23  -9    1.25    3.15
  -7 -25   8    1.96    3.22
  -7 -25   7    2.50    2.97
  -7 -25   6    6.92    2.97
  -7 -25   5    4.24    2.43
  -7 -25   5    0.84    1.26
  -7 -25   4    5.65    2.33
  -7 -25   4    1.56    1.45
  -7 -25   4    1.83    1.08
  -7 -25   3    0.99    2.17
  -7 -25   3    3.11    1.72
  -7 -25   3   -1.09    1.42
  -7 -25   2    6.65    2.12
  -7 -25   2    1.58    1.86
  -7 -25   2    4.64    1.78
  -7 -25   1   10.29    2.71
  -7 -25   1    6.86    2.97
  -7 -25   1    6.54    2.04
  -7 -25   0    4.18    2.13
  -7 -25   0    5.65    3.16
  -7 -25   0    9.94    2.23
  -7 -25  -1    5.55    2.00
  -7 -25  -1    4.12    2.23
  -7 -25  -2    0.58    1.15
  -7 -25  -2    2.67    2.16
  -7 -25  -3   -1.55    2.39
  -7 -25  -4    5.60    2.43
  -7 -25  -5    5.05    2.61
  -7 -25  -6    3.17    2.75
  -7 -25  -7    4.14    2.97
  -7 -25  -8    3.54    3.30
  -7 -27   7    5.48    3.31
  -7 -27   5    4.74    2.97
  -7 -27   4    2.56    3.65
  -7 -27   4    2.79    1.56
  -7 -27   4    4.00    1.16
  -7 -27   3    2.16    1.99
  -7 -27   3    5.07    1.64
  -7 -27   2    5.16    2.26
  -7 -27   2    5.22    1.77
  -7 -27   2    2.46    1.41
  -7 -27   1    7.07    2.73
  -7 -27   1    9.60    2.81
  -7 -27   1    6.97    2.13
  -7 -27   0    2.56    2.28
  -7 -27   0   11.34    3.04
  -7 -27   0   10.08    2.31
  -7 -27  -1    2.07    1.57
  -7 -27  -1    9.17    2.86
  -7 -27  -2    6.32    3.10
  -7 -27  -3    5.01    2.43
  -7 -27  -4    5.52    2.60
  -7 -27  -5    3.69    2.69
  -7 -27  -6    1.57    2.83
  -7 -29   5    4.95    3.15
  -7 -29   3    6.52    3.24
  -7 -29   3    0.90    1.89
  -7 -29   3    0.93    1.56
  -7 -29   2    7.55    2.79
  -7 -29   2    2.04    2.25
  -7 -29   2    0.90    1.25
  -7 -29   1    5.77    2.51
  -7 -29   1    3.00    2.02
  -7 -29   1    4.27    1.97
  -7 -29   0    2.58    2.59
  -7 -29   0    6.01    3.05
  -7 -29   0    5.11    2.09
  -7 -29  -1    2.22    2.16
  -7 -29  -1    4.72    3.10
  -7 -29  -1    2.52    1.57
  -7 -29  -2    5.05    3.41
  -7 -29  -3   -1.31    3.28
  -7 -29  -4    7.92    4.01
  -7 -31   2   -1.95    2.21
  -7 -31   1    0.39    2.90
  -7 -31   1    1.73    1.92
  -7 -31   0    3.35    2.01
  -7 -31   0    7.42    3.19
  -7 -31  -1    2.36    2.45
  -8  30   3    3.80    3.38
   8 -30  -2    2.68    3.09
  -8  30   2    6.43    4.32
   8 -30  -1    4.82    3.31
  -8  30   1    8.07    4.16
   8 -30   0   -0.88    2.80
  -8  30   0    6.63    2.65
   8 -30   1    2.29    2.29
  -8  30  -1    4.03    2.28
   8 -28  -6    5.87    4.25
  -8  28   6    0.64    1.25
  -8  28   6    1.15    3.55
   8 -28  -5    6.58    3.42
  -8  28   5    5.26    3.80
   8 -28  -4    0.15    4.59
  -8  28   4    7.91    4.64
   8 -28  -3    1.78    3.31
  -8  28   3    6.30    3.27
   8 -28  -2    3.48    3.23
  -8  28   2    4.24    3.03
   8 -28  -1    6.91    3.07
  -8  28   1    8.03    4.16
   8 -28   0    5.53    2.85
  -8  28   0    6.03    3.71
   8 -28   1    1.64    2.19
  -8  28  -1    2.08    2.22
  -8  28  -1    1.43    2.17
   8 -28   2   -0.30    1.56
  -8  28  -2    0.93    2.48
  -8  28  -3   -9.61    4.39
  -8  28  -3   -0.55    1.96
   8 -28   4    1.95    2.07
  -8  28  -4    1.03    0.56
   8 -26  -8    0.34    3.55
  -8  26   8    3.79    3.14
  -8  26   8    2.70    3.66
   8 -26  -7    3.83    3.18
  -8  26   7    1.04    2.20
  -8  26   7    3.53    3.52
   8 -26  -6    1.10    3.04
  -8  26   6    1.38    1.55
  -8  26   6    5.23    3.45
   8 -26  -5    5.40    3.19
  -8  26   5    6.47    3.62
   8 -26  -4    1.56    3.05
  -8  26   4    1.90    1.31
  -8  26   4   -0.33    3.11
   8 -26  -3    4.49    3.32
   8 -26  -3    5.07    3.31
  -8  26   3   10.59    4.39
   8 -26  -2   12.15    3.37
  -8  26   2    3.98    3.25
   8 -26  -1   10.28    3.30
  -8  26   1   14.20    4.40
   8 -26   0    6.43    3.04
  -8  26   0   13.00    3.91
   8 -26   1    2.88    2.24
  -8  26  -1    2.45    2.13
  -8  26  -2    3.14    2.62
   8 -26   3    3.76    1.90
  -8  26  -3   -1.15    3.26
  -8  26  -3    2.13    2.35
   8 -26   4    2.75    1.50
  -8  26  -4    1.70    3.45
  -8  26  -4    4.29    2.05
   8 -26   5    2.09    1.90
  -8  26  -5    8.10    5.41
  -8  26  -6    0.03    0.08
   8 -24  -9    2.17    3.37
  -8  24   9    0.73    3.38
   8 -24  -8    0.58    3.22
  -8  24   8    3.85    3.33
   8 -24  -7    4.70    3.24
  -8  24   7    5.60    3.09
  -8  24   7   -0.86    3.42
   8 -24  -6    5.36    2.98
  -8  24   6    4.74    2.09
  -8  24   6    4.75    3.45
   8 -24  -5    7.40    2.79
  -8  24   5    2.02    1.51
  -8  24   5    1.86    3.15
   8 -24  -4   -3.74    2.75
  -8  24   4    3.83    2.79
   8 -24  -3    1.76    3.02
  -8  24   3    5.01    1.59
  -8  24   3    4.46    2.86
   8 -24  -2    8.28    3.26
  -8  24   2    8.46    3.05
   8 -24  -1   10.55    4.12
  -8  24   1   10.32    2.94
   8 -24   0    8.64    3.96
  -8  24   0   10.13    3.53
   8 -24   1    7.99    2.43
  -8  24  -1   13.40    2.97
  -8  24  -1    3.17    2.40
  -8  24  -2   12.62    3.18
  -8  24  -2    3.00    2.90
   8 -24   3    5.39    2.11
  -8  24  -3    9.71    3.28
  -8  24  -3    3.41    2.58
   8 -24   4    2.69    1.73
  -8  24  -4    8.12    3.38
  -8  24  -4    5.56    2.32
   8 -24   5    5.05    1.45
  -8  24  -5    7.12    4.02
  -8  24  -5    4.79    2.14
  -8  24  -6    9.68    4.09
  -8  24  -6    4.02    1.73
   8 -22 -10    4.20    3.22
  -8  22  10   -2.05    3.21
   8 -22  -9   -1.04    3.10
  -8  22   9   -3.54    3.21
   8 -22  -8    3.05    3.85
  -8  22   8   -0.62    3.03
   8 -22  -7    2.12    2.82
  -8  22   7    0.06    3.05
   8 -22  -6    2.19    2.65
  -8  22   6    6.70    2.73
  -8  22   6    0.43    2.99
   8 -22  -5    7.08    2.62
  -8  22   5    3.02    1.88
  -8  22   5    4.77    2.98
  -8  22   5    3.96    2.95
   8 -22  -4    1.64    2.67
  -8  22   4    1.86    1.49
  -8  22   4    7.00    3.66
   8 -22  -3    6.81    2.77
  -8  22   3    1.88    2.56
   8 -22  -2    9.90    3.39
  -8  22   2   13.12    2.17
  -8  22   2   16.66    4.03
   8 -22  -1   16.94    4.08
  -8  22   1    9.44    2.87
   8 -22   0    8.72    3.72
  -8  22   0    8.43    3.38
   8 -22   1    0.08    2.05
  -8  22  -1    2.85    1.89
  -8  22  -2    4.21    2.98
  -8  22  -2    4.74    2.46
   8 -22   3    2.59    2.00
  -8  22  -3    1.64    1.57
   8 -22   4    4.40    1.89
  -8  22  -4    6.79    3.31
  -8  22  -4    4.93    2.07
   8 -22   5    2.53    1.07
  -8  22  -5    3.60    3.24
  -8  22  -6    0.71    3.56
  -8  22  -6    1.67    1.25
  -8  22  -7    6.16    4.69
  -8  22  -7   -0.02    0.39
  -8  22  -8    4.34    3.34
  -8  22  -8    2.14    1.33
   8 -20 -11    2.57    3.34
  -8  20  11    2.48    3.24
   8 -20 -10    1.60    3.02
  -8  20  10    2.46    3.07
   8 -20  -9    0.58    2.76
  -8  20   9    1.64    2.98
   8 -20  -8    3.08    2.56
  -8  20   8   -2.93    2.85
   8 -20  -7    8.38    2.75
  -8  20   7   -0.23    2.92
   8 -20  -6    0.67    2.45
  -8  20   6    9.43    2.89
   8 -20  -5    6.95    3.74
  -8  20   5   14.32    3.18
   8 -20  -4    0.28    2.34
  -8  20   4    1.61    1.67
  -8  20   4   -0.55    2.27
   8 -20  -3    7.28    2.85
  -8  20   3   12.20    2.67
   8 -20  -2   22.19    2.94
  -8  20   2    1.44    2.60
   8 -20  -1   12.86    3.24
  -8  20   1    1.92    2.19
   8 -20   0    7.27    2.23
  -8  20   0   -4.28    2.61
   8 -20   1    3.87    2.01
  -8  20  -1    2.82    1.75
   8 -20   2    3.87    1.70
  -8  20  -2   12.27    2.86
  -8  20  -2    3.26    2.28
   8 -20   3    4.18    2.10
  -8  20  -3    5.26    2.04
   8 -20   4    1.90    1.83
  -8  20  -4   -1.57    2.88
  -8  20  -4    3.24    1.23
   8 -20   5    2.61    1.61
  -8  20  -5    1.45    2.97
  -8  20  -5    2.58    1.23
  -8  20  -6    1.52    3.26
  -8  20  -6    1.39    0.69
  -8  20  -7   -1.07    3.27
  -8  20  -7    1.69    1.12
  -8  20  -8    0.34    3.09
  -8  20  -8    1.80    1.02
   8 -20   9    3.62    3.53
  -8  20  -9    0.33    2.68
  -8  20  -9    3.42    1.65
  -8  20  -9    2.70    1.53
   8 -18 -11   -3.27    2.99
  -8  18  11    3.31    2.88
   8 -18 -10   -4.56    2.77
  -8  18  10    2.22    2.93
   8 -18  -9    1.26    2.54
  -8  18   9    1.33    2.78
   8 -18  -8    3.26    2.43
  -8  18   8    0.90    2.69
   8 -18  -7    1.35    2.31
  -8  18   7    2.93    2.57
   8 -18  -6   -2.46    2.00
  -8  18   6    3.09    2.36
   8 -18  -5   -0.41    2.04
  -8  18   5    5.72    2.26
   8 -18  -4    0.09    2.19
  -8  18   4    4.97    2.13
   8 -18  -3    1.15    2.21
  -8  18   3    2.11    1.74
  -8  18   3    4.57    2.12
   8 -18  -2    6.72    2.39
  -8  18   2    7.73    1.79
  -8  18   2    3.09    2.22
   8 -18  -1    6.67    2.46
  -8  18   1   11.34    2.17
  -8  18   1   10.79    2.30
   8 -18   0    6.33    2.28
  -8  18   0    6.06    2.63
   8 -18   1    3.04    1.89
  -8  18  -1    2.35    1.70
   8 -18   2    3.95    2.17
  -8  18  -2    3.99    2.49
  -8  18  -2    4.81    1.59
   8 -18   3    4.13    1.53
  -8  18  -3   -0.67    2.70
  -8  18  -3    3.11    1.81
   8 -18   4    3.34    1.94
  -8  18  -4   -2.04    3.65
  -8  18  -4    2.88    1.48
   8 -18   5    5.71    1.72
  -8  18  -5    5.55    2.82
  -8  18  -5    2.27    0.92
  -8  18  -6    2.59    3.09
  -8  18  -6    1.78    1.30
  -8  18  -7   -0.58    3.02
  -8  18  -7    2.71    1.64
   8 -18   8   -3.41    2.99
  -8  18  -8    0.08    2.88
  -8  18  -8    1.19    1.74
   8 -18   9    2.37    3.08
  -8  18  -9    4.44    2.34
  -8  18  -9    0.61    1.82
  -8  18  -9    0.90    1.96
   8 -18  10   -3.27    2.95
  -8  18 -10   -0.37    1.58
  -8  18 -10    1.51    1.97
   8 -16 -12    2.97    3.21
  -8  16  12    0.89    3.07
   8 -16 -11    2.60    2.83
  -8  16  11   -3.49    2.83
   8 -16 -10    1.78    2.55
  -8  16  10   -0.16    2.74
   8 -16  -9   -2.11    2.32
  -8  16   9    1.11    2.57
   8 -16  -8    0.73    2.29
  -8  16   8    5.45    2.63
   8 -16  -7    7.13    2.44
  -8  16   7    6.84    2.72
   8 -16  -6    1.88    1.87
  -8  16   6    0.23    2.23
   8 -16  -5    5.51    2.02
  -8  16   5    5.76    2.30
   8 -16  -4    0.98    1.94
  -8  16   4    0.91    1.99
   8 -16  -3    3.78    2.02
  -8  16   3    1.68    1.98
   8 -16  -2    1.79    2.05
  -8  16   2    2.90    1.82
  -8  16   2    3.46    1.93
   8 -16  -1    7.18    2.03
  -8  16   1    3.86    2.01
   8 -16   0    5.09    2.08
  -8  16   0    8.07    2.57
   8 -16   1    3.56    1.85
  -8  16  -1    4.41    1.70
   8 -16   2    3.53    2.17
  -8  16  -2    9.33    2.33
  -8  16  -2    4.30    1.51
   8 -16   3    2.50    1.36
  -8  16  -3    6.73    2.47
  -8  16  -3    1.77    1.24
  -8  16  -4   -3.23    2.49
  -8  16  -4    2.47    1.03
   8 -16   5    8.25    1.98
  -8  16  -5   -1.04    2.80
  -8  16  -5    7.45    1.75
  -8  16  -6   -0.12    2.92
  -8  16  -6    4.53    1.39
  -8  16  -7    3.57    2.66
  -8  16  -7   -0.73    1.95
   8 -16   8    0.57    2.73
  -8  16  -8   -0.45    2.61
  -8  16  -8   -0.99    1.93
   8 -16   9   -1.04    2.73
  -8  16  -9    0.51    2.07
  -8  16  -9    2.10    1.99
  -8  16  -9    3.69    2.07
   8 -16  10    4.82    2.72
  -8  16 -10    1.33    1.93
  -8  16 -10    4.12    2.40
   8 -16  11    0.35    2.66
  -8  16 -11    2.68    1.74
  -8  16 -11    1.67    2.43
   8 -14 -13    2.34    3.25
  -8  14  13   -3.72    3.69
   8 -14 -12    2.17    3.06
  -8  14  12    2.54    4.13
   8 -14 -11    2.95    2.78
  -8  14  11    1.68    2.91
   8 -14 -10    3.78    2.48
  -8  14  10    1.31    2.71
   8 -14  -9   -1.05    2.15
  -8  14   9    2.17    2.38
   8 -14  -8    3.42    2.16
  -8  14   8    3.38    2.50
   8 -14  -7    3.98    1.98
  -8  14   7    2.77    2.36
   8 -14  -6    0.80    1.76
  -8  14   6    4.08    2.07
   8 -14  -5    2.97    1.71
  -8  14   5    2.89    2.09
   8 -14  -4   -0.55    1.78
  -8  14   4   -0.68    1.87
   8 -14  -3    1.52    1.85
  -8  14   3    2.85    1.90
   8 -14  -2    6.35    1.82
  -8  14   2    2.42    1.95
   8 -14  -1    5.37    1.92
  -8  14   1    5.96    1.95
  -8  14   1    2.81    1.90
   8 -14   0    8.08    2.02
  -8  14   0    7.93    2.08
  -8  14   0    5.64    2.56
   8 -14   1    6.85    1.87
  -8  14  -1    6.54    2.24
  -8  14  -1    5.44    2.27
   8 -14   2    5.44    1.59
  -8  14  -2    7.11    2.69
  -8  14  -2    3.85    1.77
   8 -14   3    0.16    1.85
  -8  14  -3    5.84    2.16
  -8  14  -3    1.28    1.63
   8 -14   4    2.01    1.41
  -8  14  -4    3.43    2.33
  -8  14  -4    1.75    1.26
   8 -14   5    1.90    1.40
  -8  14  -5    0.95    2.32
  -8  14  -5    3.85    1.41
  -8  14  -6    2.61    2.56
  -8  14  -6    3.09    1.99
  -8  14  -7   -2.47    2.46
  -8  14  -7   -0.74    2.18
   8 -14   8   -0.45    2.43
  -8  14  -8    3.38    2.31
  -8  14  -8    0.62    1.67
   8 -14   9    3.51    2.35
  -8  14  -9    2.32    1.79
  -8  14  -9   -1.26    1.59
  -8  14  -9    4.13    2.27
   8 -14  10   -0.66    2.34
  -8  14 -10    2.92    2.08
  -8  14 -10    2.94    2.37
   8 -14  11   -1.68    2.28
  -8  14 -11   -0.73    1.42
  -8  14 -11    1.48    1.74
   8 -12 -13    1.74    3.28
  -8  12  13    6.54    3.37
   8 -12 -12    6.88    2.81
  -8  12  12   -5.29    2.90
   8 -12 -11    5.39    2.73
  -8  12  11    2.05    2.93
   8 -12 -10   -0.30    2.23
  -8  12  10    0.89    2.49
   8 -12  -9    1.74    2.11
  -8  12   9    0.17    2.37
   8 -12  -8    3.15    2.18
  -8  12   8    8.98    2.55
   8 -12  -7    8.52    2.23
  -8  12   7   10.50    2.62
   8 -12  -6    7.88    2.00
  -8  12   6   10.10    2.51
   8 -12  -5    5.45    1.80
  -8  12   5    6.14    2.22
   8 -12  -4    4.05    2.07
  -8  12   4   13.42    2.27
   8 -12  -3   30.43    3.34
  -8  12   3   32.73    3.47
   8 -12  -2   56.65    4.30
  -8  12   2   59.57    4.85
   8 -12  -1   68.58    5.39
  -8  12   1   80.74    5.75
   8 -12   0   78.19    5.49
  -8  12   0   73.62    5.58
  -8  12   0   73.23    5.22
  -8  12  -1   55.98    4.38
  -8  12  -1   47.31    3.31
   8 -12   2   45.73    4.13
  -8  12  -2   39.73    4.40
  -8  12  -2   32.74    2.71
   8 -12   3   20.40    2.22
  -8  12  -3   15.99    2.75
  -8  12  -3   16.09    2.50
   8 -12   4   21.87    2.86
  -8  12  -4   18.80    3.13
  -8  12  -4   17.80    2.55
  -8  12  -5   15.90    3.03
  -8  12  -5   20.75    2.31
  -8  12  -6   12.58    2.89
  -8  12  -6   11.53    2.17
  -8  12  -7    5.42    2.47
  -8  12  -7    7.36    2.57
   8 -12   8    1.01    2.24
  -8  12  -8    3.77    1.95
  -8  12  -8    1.14    1.71
   8 -12   9   -0.35    2.06
  -8  12  -9    1.95    1.64
  -8  12  -9   -0.74    2.19
   8 -12  10    1.10    2.14
  -8  12 -10    1.62    2.28
  -8  12 -10    2.82    1.56
   8 -12  11   -0.56    2.75
  -8  12 -11   -0.35    1.60
  -8  12 -11   -1.24    2.13
  -8  12 -12    2.53    2.35
   8 -10 -13    1.50    3.04
  -8  10  13    2.77    3.19
   8 -10 -12    3.29    2.74
  -8  10  12   -2.17    2.84
   8 -10 -11   -0.90    2.48
  -8  10  11   -0.46    2.67
   8 -10 -10    0.41    2.17
  -8  10  10   -0.11    2.39
   8 -10  -9    4.74    2.98
  -8  10   9    4.91    2.54
   8 -10  -8    4.78    2.01
  -8  10   8    2.55    2.38
   8 -10  -7    0.22    1.69
  -8  10   7    8.05    2.11
   8 -10  -6    5.89    1.79
  -8  10   6    7.68    2.22
   8 -10  -5    4.12    1.78
  -8  10   5    7.94    2.04
   8 -10  -4   -1.24    1.61
  -8  10   4   -0.39    1.78
   8 -10  -3    9.22    2.01
  -8  10   3    8.58    2.17
   8 -10  -2   11.25    1.95
  -8  10   2   10.87    3.01
   8 -10  -1   17.93    2.32
  -8  10   1   15.48    2.33
   8 -10   0   20.08    2.37
  -8  10   0   15.60    2.02
   8 -10   1   18.76    3.01
  -8  10  -1   20.46    2.11
   8 -10   2   15.95    2.06
  -8  10  -2    9.83    2.35
  -8  10  -2   14.02    1.78
   8 -10   3    2.77    2.22
  -8  10  -3    6.05    1.82
  -8  10  -3    5.02    1.38
   8 -10   4    8.84    1.72
  -8  10  -4    7.33    2.14
  -8  10  -4    5.61    1.71
  -8  10  -5    4.39    1.96
  -8  10  -5    2.96    2.27
  -8  10  -6    2.43    2.06
  -8  10  -6    3.20    2.29
  -8  10  -7    1.36    1.88
   8 -10   8    1.46    1.96
  -8  10  -8    2.25    2.12
  -8  10  -8    0.03    2.00
   8 -10   9    2.98    1.91
  -8  10  -9    0.82    2.42
  -8  10  -9    2.80    1.54
   8 -10  10    3.35    2.50
  -8  10 -10    0.48    2.37
  -8  10 -10   -0.46    1.59
   8 -10  11   -0.60    2.50
  -8  10 -11    2.36    1.75
  -8  10 -11    0.90    2.28
   8 -10  12    5.21    2.57
  -8  10 -12    0.72    1.88
  -8  10 -12    5.70    2.58
   8  -8 -14    1.07    3.14
  -8   8  14    2.56    3.89
   8  -8 -13    2.44    2.93
  -8   8  13   -1.04    3.02
   8  -8 -12    0.25    2.66
  -8   8  12   -1.16    2.83
   8  -8 -11    7.24    2.67
  -8   8  11    2.62    2.87
   8  -8 -10    0.16    2.63
  -8   8  10   -0.35    2.29
   8  -8  -9   -0.24    1.95
  -8   8   9    1.95    3.03
   8  -8  -8    0.94    1.90
  -8   8   8    6.83    2.23
   8  -8  -7    4.31    1.69
  -8   8   7    0.05    2.07
   8  -8  -6    0.13    1.44
  -8   8   6   -0.19    1.81
   8  -8  -5    7.20    1.76
  -8   8   5    1.64    1.93
   8  -8  -4   -1.30    1.48
  -8   8   4    1.89    1.68
   8  -8  -3    0.57    1.49
  -8   8   3    5.71    1.83
   8  -8  -2    6.78    1.68
  -8   8   2    1.37    1.83
   8  -8  -1   11.70    1.98
  -8   8   1   11.56    1.88
   8  -8   0   10.23    2.03
  -8   8   0   13.68    1.91
   8  -8   1    7.97    1.79
  -8   8  -1    6.36    2.12
  -8   8  -1    8.76    1.64
   8  -8   2    6.19    1.51
  -8   8  -2    3.38    1.76
  -8   8  -2    3.80    1.49
   8  -8   3    0.23    1.46
  -8   8  -3    4.11    1.92
  -8   8  -3    1.47    1.42
   8  -8   4    2.40    1.50
  -8   8  -4    0.45    1.62
  -8   8  -4    1.29    1.50
  -8   8  -5   -5.13    2.10
  -8   8  -5    2.53    1.54
  -8   8  -6    0.41    1.66
  -8   8  -6    0.93    1.96
  -8   8  -7   -0.53    2.01
  -8   8  -7    0.96    1.53
   8  -8   8    1.66    1.77
  -8   8  -8    0.87    1.11
  -8   8  -8    1.39    2.10
   8  -8   9    1.50    1.62
  -8   8  -9    0.75    2.36
  -8   8  -9   -1.38    1.39
   8  -8  10    2.65    2.26
  -8   8 -10   -3.25    2.50
  -8   8 -10    1.40    2.03
   8  -8  11    3.76    2.32
  -8   8 -11   -0.40    1.92
  -8   8 -11    5.19    2.28
   8  -8  12    0.74    2.18
  -8   8 -12   -2.72    1.92
  -8   8 -12    2.01    2.43
   8  -6 -14    3.74    3.06
  -8   6  14   -0.96    3.79
   8  -6 -13    0.95    3.08
  -8   6  13   10.32    4.27
   8  -6 -12    1.04    2.69
  -8   6  12    1.49    2.84
   8  -6 -11    5.46    2.54
  -8   6  11    1.71    2.74
   8  -6 -10    2.45    2.19
  -8   6  10    2.06    2.36
   8  -6  -9    5.61    2.28
  -8   6   9    8.43    2.57
   8  -6  -8   13.39    2.27
  -8   6   8   11.80    2.65
   8  -6  -7   14.43    2.42
  -8   6   7   25.90    2.95
   8  -6  -6   22.74    2.86
  -8   6   6   27.46    3.09
   8  -6  -5   15.91    2.47
  -8   6   5   26.53    2.78
   8  -6  -4   20.45    2.48
  -8   6   4   23.05    2.79
   8  -6  -3   90.58    5.96
  -8   6   3  106.06    7.15
   8  -6  -2  123.31    7.52
  -8   6   2  106.18    7.38
   8  -6  -1  138.85    8.77
  -8   6   1  127.30    8.31
   8  -6   0  118.93    7.51
  -8   6   0  130.85    7.67
   8  -6   1  131.32    8.17
  -8   6  -1  125.17    7.66
   8  -6   2   91.77    5.78
  -8   6  -2   80.02    7.08
  -8   6  -2   84.24    5.36
   8  -6   3   26.60    2.62
  -8   6  -3   31.26    2.91
  -8   6  -3   25.22    2.66
   8  -6   4   37.40    3.12
  -8   6  -4   35.98    2.97
  -8   6  -5   37.03    3.22
  -8   6  -6   27.09    2.47
  -8   6  -6   20.75    2.76
  -8   6  -7   10.44    1.33
  -8   6  -7   13.49    1.94
  -8   6  -8    5.08    1.67
   8  -6   9    4.83    1.69
  -8   6  -9    3.57    1.96
  -8   6  -9    1.00    1.72
   8  -6  10   -0.88    2.19
  -8   6 -10    4.47    2.06
  -8   6 -10    4.86    2.49
   8  -6  11    0.91    2.10
  -8   6 -11    2.21    2.03
  -8   6 -11    1.51    2.71
   8  -6  12    2.63    2.12
  -8   6 -12    0.63    2.12
  -8   6 -12    2.94    3.08
  -8   6 -13    3.27    2.28
   8  -4 -14    0.90    2.92
  -8   4  14    0.98    3.55
   8  -4 -13    1.51    2.84
  -8   4  13    2.89    3.91
   8  -4 -12    4.99    2.73
  -8   4  12    2.25    2.88
   8  -4 -11    0.10    2.42
  -8   4  11    4.49    2.56
   8  -4 -10   -2.61    1.91
  -8   4  10    3.87    2.21
   8  -4  -9    0.18    1.81
  -8   4   9    0.00    2.04
   8  -4  -8    2.99    1.80
  -8   4   8    2.43    2.06
   8  -4  -7    3.09    1.87
  -8   4   7    3.87    1.96
   8  -4  -6    8.03    1.91
  -8   4   6    4.50    2.00
   8  -4  -5    7.53    2.52
  -8   4   5    9.60    2.05
   8  -4  -4   18.97    2.12
  -8   4   4   18.18    2.54
   8  -4  -3   54.37    4.20
  -8   4   3   63.26    4.57
   8  -4  -2   66.00    4.67
  -8   4   2   77.13    5.26
   8  -4  -1   66.20    4.80
  -8   4   1   67.40    4.56
   8  -4   0   63.02    4.58
  -8   4   0   63.28    4.02
   8  -4   1   70.45    4.56
  -8   4  -1   75.43    4.81
   8  -4   2   59.80    4.24
  -8   4  -2   56.94    4.22
  -8   4  -2   59.19    4.18
   8  -4   3   14.91    2.21
  -8   4  -3   18.54    1.86
  -8   4  -3   18.56    2.09
  -8   4  -4   15.58    1.60
  -8   4  -4   12.33    2.12
  -8   4  -5    8.90    1.85
  -8   4  -5    8.28    1.76
  -8   4  -6    5.92    1.67
  -8   4  -6    4.52    1.69
  -8   4  -7    2.69    1.37
  -8   4  -7    4.49    1.76
  -8   4  -8    0.00    0.91
  -8   4  -8    2.71    1.65
  -8   4  -9    2.93    1.80
  -8   4  -9   -2.43    1.64
   8  -4  10    0.59    1.48
  -8   4 -10    1.05    1.97
  -8   4 -10    1.60    1.91
   8  -4  11    1.48    1.93
  -8   4 -11   -1.72    2.08
  -8   4 -11    1.29    2.15
   8  -4  12    2.24    1.95
  -8   4 -12   -1.42    2.22
   8  -4  13    0.20    1.93
  -8   4 -13   -0.16    2.24
  -8   4 -13   -1.47    3.61
   8  -2 -14   -0.60    2.69
  -8   2  14    7.43    3.54
   8  -2 -13    1.54    2.57
  -8   2  13    5.07    3.82
   8  -2 -12    2.14    2.30
  -8   2  12   -1.35    2.60
   8  -2 -11    7.11    2.42
  -8   2  11    3.69    2.65
   8  -2 -10    2.94    2.79
  -8   2  10    4.04    2.32
   8  -2  -9    1.75    1.77
  -8   2   9   -2.45    1.99
   8  -2  -8   -1.54    1.88
  -8   2   8    2.80    1.93
   8  -2  -7    2.08    1.97
  -8   2   7    8.52    1.98
   8  -2  -6    2.98    1.73
  -8   2   6    0.79    1.67
   8  -2  -5    1.96    1.49
  -8   2   5    4.38    1.73
   8  -2  -4    3.60    1.52
  -8   2   4    1.96    1.69
   8  -2  -3   -1.05    1.47
  -8   2   3    2.33    1.47
   8  -2  -2   -2.89    1.65
  -8   2   2   -2.72    1.68
   8  -2  -1   24.96    2.47
  -8   2   1   23.25    2.36
   8  -2   0   17.19    2.11
  -8   2   0   18.68    2.17
   8  -2   1    4.58    1.65
  -8   2  -1    2.44    1.56
   8  -2   2    3.60    1.55
  -8   2  -2    2.35    1.49
   8  -2   3    6.52    1.65
  -8   2  -3    3.38    1.61
  -8   2  -3    4.19    1.68
  -8   2  -4    4.97    1.42
  -8   2  -4    4.62    1.54
  -8   2  -5    6.12    1.34
  -8   2  -5    2.88    1.78
  -8   2  -6    2.72    0.75
  -8   2  -6    2.87    1.69
  -8   2  -7    0.65    1.60
  -8   2  -8    2.50    1.73
  -8   2  -8    3.88    2.44
  -8   2  -9    3.01    1.99
  -8   2  -9    2.09    1.93
  -8   2 -10    0.09    1.97
  -8   2 -10   -0.78    2.14
  -8   2 -11    2.52    2.14
  -8   2 -11   -1.87    2.55
   8  -2  12    2.83    1.52
  -8   2 -12    3.27    2.38
  -8   2 -12    3.94    3.05
   8  -2  13   -0.80    1.50
  -8   2 -13    3.82    2.44
  -8   2 -13    4.80    3.24
   8   0 -14    7.23    2.88
  -8   0  14    8.11    4.99
   8   0 -13    2.77    2.43
  -8   0  13   -1.34    3.54
   8   0 -12    0.88    2.46
  -8   0  12   10.45    3.58
   8   0 -11    6.50    2.36
  -8   0  11    3.62    2.54
   8   0 -10    2.89    2.30
  -8   0  10    8.77    3.11
   8   0  -9   15.84    3.86
  -8   0   9   18.31    3.65
   8   0  -8   25.85    3.21
  -8   0   8   20.20    3.99
   8   0  -7   27.89    4.50
  -8   0   7   34.14    3.29
   8   0  -6   54.51    4.20
  -8   0   6   56.26    4.44
   8   0  -5   48.39    3.61
  -8   0   5   50.87    5.07
   8   0  -4   58.62    4.02
  -8   0   4   51.22    4.13
   8   0  -3  137.08    8.42
  -8   0   3  120.54    8.18
   8   0  -2  158.60    9.96
  -8   0   2  162.58   10.14
   8   0  -1  230.96   14.74
  -8   0   1  212.32   14.07
   8   0   0  216.76   14.10
  -8   0   0  209.08   13.85
   8   0   1  140.32    8.53
  -8   0  -1  141.90    8.47
   8   0   2  113.38    6.92
  -8   0  -2   98.16    6.79
  -8   0  -3   44.18    2.86
  -8   0  -3   35.31    3.16
  -8   0  -4   45.38    2.52
  -8   0  -4   43.58    3.77
  -8   0  -5   44.22    2.25
  -8   0  -5   45.66    3.98
  -8   0  -6   24.03    1.60
  -8   0  -6   25.63    3.58
  -8   0  -7   12.63    1.76
  -8   0  -7   25.54    2.52
  -8   0  -8    7.30    2.18
  -8   0  -8   10.00    2.35
  -8   0  -9    1.92    1.65
  -8   0  -9    2.97    3.01
  -8   0 -10    1.36    2.95
  -8   0 -10    4.79    2.74
  -8   0 -11    5.83    3.30
  -8   0 -11    3.97    3.26
  -8   0 -12    5.91    2.63
  -8   0 -12    3.28    3.59
  -8   0 -13    3.25    2.64
  -8   0 -13    0.58    3.59
   8   2 -14    4.16    2.73
  -8  -2  14    0.59    4.24
   8   2 -13    1.68    2.65
  -8  -2  13    7.13    3.47
   8   2 -12    2.23    3.18
  -8  -2  12   -2.05    2.33
   8   2 -11    3.07    3.06
  -8  -2  11    0.84    2.21
   8   2 -10    1.50    2.13
  -8  -2  10    2.85    2.80
   8   2  -9    4.02    2.10
  -8  -2   9    5.22    2.61
   8   2  -8   -0.23    1.84
  -8  -2   8   -0.66    1.68
   8   2  -7    0.27    1.60
  -8  -2   7    1.17    1.56
   8   2  -6    4.35    1.68
  -8  -2   6    3.52    2.19
   8   2  -5    3.34    1.52
  -8  -2   5    2.75    1.54
   8   2  -4    1.76    1.51
  -8  -2   4    2.32    1.40
   8   2  -3    1.96    1.42
  -8  -2   3   -1.62    1.53
   8   2  -2    6.75    1.59
  -8  -2   2    0.26    1.51
   8   2  -1   23.26    2.17
  -8  -2   1   24.33    2.35
   8   2   0   20.05    2.16
  -8  -2   0   22.36    2.34
   8   2   1    2.71    1.54
  -8  -2  -1    2.95    1.59
  -8  -2  -2   -4.57    1.57
  -8  -2  -3    4.51    1.30
  -8  -2  -3    0.80    1.65
  -8  -2  -4    2.59    0.80
  -8  -2  -4    1.14    1.52
  -8  -2  -5    3.80    0.62
  -8  -2  -5    2.17    1.63
  -8  -2  -6    2.36    1.70
  -8  -2  -7    0.42    2.08
  -8  -2  -7    4.87    1.93
  -8  -2  -8   -0.85    1.92
  -8  -2  -8    2.78    2.06
  -8  -2  -9    1.89    1.72
  -8  -2  -9   -0.57    2.45
  -8  -2 -10    5.01    2.22
  -8  -2 -10    0.17    3.00
  -8  -2 -11   -1.04    2.30
  -8  -2 -11    0.68    3.21
  -8  -2 -12   -2.29    2.57
  -8  -2 -12   11.89    3.60
  -8  -2 -13    0.40    3.09
  -8  -2 -13   -3.39    3.79
   8   4 -14    0.83    2.41
  -8  -4  14   -0.35    2.75
   8   4 -13    5.45    2.45
   8   4 -13   -0.45    2.36
  -8  -4  13    1.06    2.30
   8   4 -12    4.04    2.24
  -8  -4  12   -1.80    2.20
   8   4 -11    2.28    2.93
  -8  -4  11    1.57    2.07
   8   4 -10    5.84    2.78
  -8  -4  10   -0.62    2.65
   8   4  -9    3.10    1.87
  -8  -4   9    2.21    1.79
   8   4  -8   -2.02    2.33
  -8  -4   8    3.06    1.65
   8   4  -7    7.38    1.87
  -8  -4   7    4.88    2.31
   8   4  -6   12.37    1.91
  -8  -4   6    8.85    1.85
   8   4  -5   16.13    2.07
  -8  -4   5   15.48    1.95
   8   4  -4   25.71    2.26
  -8  -4   4   20.63    2.34
   8   4  -3   65.26    4.02
  -8  -4   3   61.17    3.99
   8   4  -2   61.93    3.79
  -8  -4   2   74.43    4.47
   8   4  -1   62.14    3.91
  -8  -4   1   58.29    3.99
   8   4   0   60.75    3.96
  -8  -4   0   66.21    4.09
   8   4   1   61.26    4.10
  -8  -4  -1   64.56    4.09
  -8  -4  -2   51.26    3.89
  -8  -4  -3   14.78    1.98
  -8  -4  -4   11.63    0.85
  -8  -4  -4   10.46    1.83
  -8  -4  -5    6.96    1.77
  -8  -4  -6    2.12    1.39
  -8  -4  -6    4.63    1.73
  -8  -4  -7    5.76    2.35
  -8  -4  -7    4.24    2.14
  -8  -4  -8    3.02    2.23
  -8  -4  -8    5.23    2.51
  -8  -4  -9    3.63    2.02
  -8  -4 -10    4.75    2.02
  -8  -4 -11    2.89    2.44
  -8  -4 -12    3.46    2.72
  -8  -4 -13    1.44    3.17
   8   6 -14    0.28    2.22
  -8  -6  14   -0.92    2.21
   8   6 -13    3.60    2.26
  -8  -6  13    0.03    2.48
   8   6 -12    4.73    2.18
  -8  -6  12    5.09    2.23
   8   6 -11    2.75    2.70
  -8  -6  11    3.12    1.97
   8   6 -10    1.39    2.51
  -8  -6  10    4.79    2.53
   8   6  -9    8.02    2.22
  -8  -6   9    9.18    1.96
   8   6  -8   19.67    3.32
  -8  -6   8   19.88    2.38
   8   6  -7   25.96    3.67
  -8  -6   7   32.70    2.62
   8   6  -6   44.20    4.28
  -8  -6   6   43.98    4.03
   8   6  -5   36.80    3.35
  -8  -6   5   33.90    2.48
   8   6  -4   31.16    3.06
  -8  -6   4   28.51    2.52
   8   6  -3   81.16    4.36
  -8  -6   3   92.88    5.15
   8   6  -2  106.31    5.93
  -8  -6   2  112.34    6.40
   8   6  -1  113.13    6.42
  -8  -6   1  114.47    6.48
   8   6   0  103.82    6.48
  -8  -6   0  118.64    6.72
  -8  -6  -1  103.88    6.07
  -8  -6  -2   74.53    5.00
  -8  -6  -3   14.69    1.91
  -8  -6  -4   18.61    2.07
  -8  -6  -5   18.59    2.23
  -8  -6  -6   23.44    3.66
  -8  -6  -6   26.46    3.86
  -8  -6  -7   16.04    3.13
  -8  -6  -8    6.52    2.49
  -8  -6  -9    1.99    2.12
  -8  -6 -11    7.27    2.30
  -8  -6 -12    2.90    2.74
  -8  -6 -13    7.96    5.07
   8   8 -13    0.64    1.91
  -8  -8  13    1.70    2.90
   8   8 -12    3.44    2.02
  -8  -8  12    0.41    2.45
   8   8 -11    3.50    2.65
  -8  -8  11    3.46    1.80
   8   8 -10    2.74    2.28
  -8  -8  10   -0.11    2.23
   8   8  -9    0.66    2.00
  -8  -8   9   -0.16    1.93
   8   8  -8   -0.57    1.36
  -8  -8   8   -0.13    1.84
   8   8  -7   -0.07    1.23
   8   8  -6    3.18    1.15
  -8  -8   6    3.63    1.74
   8   8  -5    3.68    1.10
  -8  -8   5    0.78    1.59
   8   8  -4    3.22    1.00
  -8  -8   4    2.11    1.81
   8   8  -3    5.09    1.13
  -8  -8   3    5.86    2.01
   8   8  -2    3.53    1.23
  -8  -8   2    2.87    1.88
  -8  -8   1   10.40    1.67
  -8  -8   0    9.74    1.51
  -8  -8  -1    6.88    1.52
  -8  -8  -2    1.07    1.21
  -8  -8  -3    0.39    1.14
  -8  -8  -4    2.06    1.91
  -8  -8  -5    1.56    2.19
  -8  -8  -5    2.58    2.20
  -8  -8  -6    3.99    2.45
  -8  -8  -7    7.73    2.76
  -8  -8  -8    3.13    2.39
  -8  -8  -9    0.94    2.26
  -8  -8 -10    4.36    2.52
  -8  -8 -11   -2.53    3.24
  -8  -8 -12    3.57    2.72
   8  10 -13    2.85    2.47
  -8 -10  13    0.90    1.95
   8  10 -12    1.58    2.23
  -8 -10  12   -1.74    2.05
   8  10 -11   -0.19    1.95
  -8 -10  11    0.31    2.01
   8  10 -10   -0.78    1.66
  -8 -10  10    1.18    1.96
   8  10  -9    1.45    1.49
  -8 -10   9   -0.91    1.81
   8  10  -8    2.08    1.38
  -8 -10   8    5.51    1.83
   8  10  -7    4.54    1.40
  -8 -10   7    5.20    1.29
   8  10  -6    5.73    1.31
  -8 -10   6    6.17    1.29
   8  10  -5    5.03    1.45
  -8 -10   5    8.36    1.81
   8  10  -4    1.43    1.35
  -8 -10   4    4.54    1.61
   8  10  -3   11.46    1.93
  -8 -10   3   13.08    1.63
  -8 -10   2   15.51    1.69
  -8 -10   1   13.76    1.69
  -8 -10   0   10.64    1.58
  -8 -10  -1    3.25    1.21
  -8 -10  -2    3.84    1.72
  -8 -10  -3    1.64    0.43
  -8 -10  -3    0.39    1.82
  -8 -10  -4    1.45    2.25
  -8 -10  -4    5.79    2.17
  -8 -10  -5    5.06    2.51
  -8 -10  -6    4.48    2.56
  -8 -10  -7    8.80    2.80
  -8 -10  -8   -0.30    2.41
  -8 -10  -9    1.04    2.43
  -8 -10 -10    2.52    2.62
  -8 -10 -11    3.16    2.70
  -8 -10 -12    0.89    2.93
   8  12 -13    0.27    0.58
  -8 -12  13    0.55    1.95
   8  12 -12    0.61    0.60
  -8 -12  12    1.42    2.07
   8  12 -11    0.90    0.77
  -8 -12  11    3.38    1.78
   8  12 -10    0.07    0.68
  -8 -12  10   -0.36    1.64
   8  12  -9    2.98    1.11
  -8 -12   9    0.99    1.71
   8  12  -8    5.95    1.25
  -8 -12   8    8.47    1.82
   8  12  -7   13.01    1.68
  -8 -12   7   13.78    1.95
   8  12  -6   18.43    1.87
  -8 -12   6   17.04    2.09
   8  12  -5   17.44    2.11
  -8 -12   5   24.39    2.34
  -8 -12   4   15.60    2.06
  -8 -12   3   37.50    2.48
  -8 -12   2   47.89    2.71
  -8 -12   1   56.84    2.88
  -8 -12   0   54.57    3.75
  -8 -12  -1   23.05    1.67
  -8 -12  -1   44.40    2.72
  -8 -12  -2   15.42    1.20
  -8 -12  -2   34.07    3.35
  -8 -12  -3    7.74    2.36
  -8 -12  -3    6.88    2.22
  -8 -12  -4    8.35    2.64
  -8 -12  -5   20.04    4.54
  -8 -12  -6    6.74    2.73
  -8 -12  -7   12.58    3.20
  -8 -12  -8    2.61    2.66
  -8 -12  -9    2.42    2.67
  -8 -12 -10    4.10    2.93
  -8 -12 -11    0.63    3.17
  -8 -12 -12   -5.51    3.63
   8  14 -12   -0.50    1.26
  -8 -14  12    2.05    3.34
  -8 -14  12    1.84    1.52
   8  14 -11    0.20    1.17
  -8 -14  11   -2.41    3.03
  -8 -14  11    1.09    1.40
   8  14 -10   -1.57    1.25
  -8 -14  10    0.72    1.74
   8  14  -9    3.05    1.29
  -8 -14   9   -0.16    1.46
   8  14  -8    0.01    1.22
  -8 -14   8    1.93    1.36
   8  14  -7    0.40    1.34
  -8 -14   7    2.93    1.28
  -8 -14   6    3.80    1.36
  -8 -14   4    2.34    1.49
  -8 -14   3    2.17    1.45
  -8 -14   2    4.76    1.08
  -8 -14   2    1.78    1.06
  -8 -14   1   13.16    1.46
  -8 -14   1    2.65    0.97
  -8 -14   0   13.61    1.45
  -8 -14   0    2.81    1.55
  -8 -14  -1    1.11    1.15
  -8 -14  -1    1.12    1.11
  -8 -14  -1    4.33    1.53
  -8 -14  -2    2.90    0.79
  -8 -14  -2    3.18    1.97
  -8 -14  -2    0.33    1.79
  -8 -14  -3    1.53    0.65
  -8 -14  -3    2.05    2.04
  -8 -14  -4    4.06    2.34
  -8 -14  -5    1.01    2.22
  -8 -14  -6    7.08    2.73
  -8 -14  -7   -0.77    2.54
  -8 -14  -8    2.58    2.78
  -8 -14  -9    1.06    2.80
  -8 -14 -10    5.80    3.25
  -8 -14 -11    4.05    5.06
  -8 -16  12   -3.68    4.33
   8  16 -11    1.21    1.01
  -8 -16  11    2.52    3.75
  -8 -16  11    0.93    1.08
  -8 -16  10    1.23    3.41
  -8 -16  10    1.49    1.12
  -8 -16   9    4.55    3.08
  -8 -16   9    1.35    1.28
  -8 -16   8    3.04    2.59
  -8 -16   8    1.16    1.23
  -8 -16   7    2.13    2.39
  -8 -16   7    3.28    1.47
  -8 -16   6    3.00    2.05
  -8 -16   6    2.37    1.20
  -8 -16   5    2.07    1.88
  -8 -16   5    1.98    1.29
  -8 -16   4    0.17    1.64
  -8 -16   4    2.57    1.35
  -8 -16   3    4.67    1.47
  -8 -16   3    0.06    1.30
  -8 -16   2    3.06    1.30
  -8 -16   2    1.63    1.21
  -8 -16   1    3.11    1.39
  -8 -16   1    5.64    1.30
  -8 -16   0    5.60    1.60
  -8 -16   0    5.57    1.67
  -8 -16   0    3.34    1.46
  -8 -16  -1    1.07    0.85
  -8 -16  -1    4.20    1.78
  -8 -16  -1    4.85    1.64
  -8 -16  -2    0.56    0.92
  -8 -16  -2    0.57    1.90
  -8 -16  -2    1.14    1.77
  -8 -16  -3    0.53    0.68
  -8 -16  -3    2.81    1.99
  -8 -16  -4    8.28    2.50
  -8 -16  -5    7.57    2.65
  -8 -16  -6   11.45    3.15
  -8 -16  -7    3.35    2.75
  -8 -16  -8    1.48    2.85
  -8 -16  -9    4.07    3.15
  -8 -16 -10    0.15    3.52
  -8 -16 -11   -0.03    3.66
  -8 -18  11    0.86    4.14
  -8 -18  10    1.33    3.77
  -8 -18   9   -5.81    3.43
  -8 -18   9    2.10    0.81
  -8 -18   8    4.23    3.09
  -8 -18   8    2.18    1.28
  -8 -18   7    2.63    2.77
  -8 -18   6    3.84    2.42
  -8 -18   6    2.81    1.09
  -8 -18   5    4.08    2.13
  -8 -18   5    2.65    1.19
  -8 -18   4    4.27    1.94
  -8 -18   4    3.14    1.25
  -8 -18   3    2.05    1.75
  -8 -18   3    0.32    1.11
  -8 -18   2    2.69    1.57
  -8 -18   2    3.54    1.78
  -8 -18   2    2.53    1.06
  -8 -18   1    1.49    1.47
  -8 -18   1    4.85    1.47
  -8 -18   1    3.77    1.79
  -8 -18   0    0.73    1.11
  -8 -18   0    5.19    1.58
  -8 -18   0    4.81    1.91
  -8 -18  -1    2.38    1.31
  -8 -18  -1    1.96    1.70
  -8 -18  -1    3.60    2.18
  -8 -18  -2    0.65    1.01
  -8 -18  -2    2.11    1.77
  -8 -18  -2    1.16    1.79
  -8 -18  -3    0.48    0.77
  -8 -18  -3    3.71    1.96
  -8 -18  -4    4.11    2.28
  -8 -18  -5    2.03    2.44
  -8 -18  -7    4.19    2.90
  -8 -18  -8   -1.04    2.92
  -8 -18  -9    0.66    3.49
  -8 -18 -10    5.97    4.14
  -8 -20  10   -1.34    4.39
  -8 -20   9   -0.09    3.80
  -8 -20   8    0.30    3.42
  -8 -20   7    2.42    3.07
  -8 -20   7    0.79    1.12
  -8 -20   7    0.82    0.86
  -8 -20   6    7.38    2.84
  -8 -20   6    3.69    1.26
  -8 -20   5    1.87    2.27
  -8 -20   5    1.34    1.28
  -8 -20   5   -1.13    1.00
  -8 -20   4    7.71    2.15
  -8 -20   4    1.51    1.41
  -8 -20   4    0.19    1.10
  -8 -20   3   -0.36    1.91
  -8 -20   3    1.69    1.55
  -8 -20   3    1.34    1.34
  -8 -20   2    7.46    1.60
  -8 -20   2    2.85    1.77
  -8 -20   2   -0.21    1.54
  -8 -20   1    2.15    1.42
  -8 -20   1    2.29    1.45
  -8 -20   1    9.20    1.96
  -8 -20   0    3.44    1.52
  -8 -20   0    2.72    1.47
  -8 -20  -1    2.57    1.91
  -8 -20  -1   23.38    2.70
  -8 -20  -2    0.18    5.79
  -8 -20  -2    1.37    1.78
  -8 -20  -3   14.33    3.60
  -8 -20  -4    4.61    2.36
  -8 -20  -5    4.35    2.68
  -8 -20  -6    1.66    2.67
  -8 -20  -7    8.27    3.33
  -8 -20  -8    6.57    3.97
  -8 -20  -9    7.49    4.29
  -8 -20 -10    0.27    3.33
  -8 -22  10   -5.00    4.87
  -8 -22   9    5.06    4.38
  -8 -22   8   -1.65    3.57
  -8 -22   7    8.95    3.66
  -8 -22   6    4.13    2.80
  -8 -22   6    1.39    1.08
  -8 -22   6    2.07    0.74
  -8 -22   5    4.13    2.55
  -8 -22   5    1.60    1.31
  -8 -22   5    1.92    0.90
  -8 -22   4    5.50    2.06
  -8 -22   4    1.34    1.46
  -8 -22   4    1.46    1.22
  -8 -22   3    1.99    1.92
  -8 -22   3    1.71    1.19
  -8 -22   3    1.36    1.46
  -8 -22   2    2.86    1.75
  -8 -22   2    3.49    1.35
  -8 -22   2    5.30    1.67
  -8 -22   1    4.88    1.74
  -8 -22   1    5.15    1.57
  -8 -22   1   12.11    2.20
  -8 -22   0   -0.10    1.40
  -8 -22   0    7.07    2.09
  -8 -22   0    1.77    1.51
  -8 -22  -1    0.92    1.12
  -8 -22  -1    4.59    2.30
  -8 -22  -1    2.80    1.68
  -8 -22  -2    0.04    4.31
  -8 -22  -2    3.80    1.88
  -8 -22  -3    4.20    2.22
  -8 -22  -4    7.62    3.58
  -8 -22  -5    3.54    2.63
  -8 -22  -6   10.18    3.81
  -8 -22  -7    9.10    5.35
  -8 -22  -8    2.26    3.69
  -8 -22  -9    4.42    3.54
  -8 -24   8    1.66    3.24
  -8 -24   7    3.55    2.98
  -8 -24   6    1.86    2.62
  -8 -24   6    1.99    1.16
  -8 -24   5    6.46    2.56
  -8 -24   5    4.67    1.73
  -8 -24   4    1.80    2.26
  -8 -24   4    3.60    1.69
  -8 -24   4    2.19    1.34
  -8 -24   3    6.54    2.88
  -8 -24   3    6.05    1.96
  -8 -24   3    2.37    1.66
  -8 -24   2    2.59    1.95
  -8 -24   2    1.97    2.06
  -8 -24   2    3.85    1.73
  -8 -24   1    7.72    1.93
  -8 -24   1    1.22    2.33
  -8 -24   1    8.45    2.21
  -8 -24   0    7.38    2.06
  -8 -24   0    4.27    2.37
  -8 -24   0    2.50    1.64
  -8 -24  -1    2.83    2.18
  -8 -24  -1    6.53    2.53
  -8 -24  -1    6.02    1.83
  -8 -24  -2    2.99    1.44
  -8 -24  -2   -3.41    1.85
  -8 -24  -3   -0.12    2.04
  -8 -24  -4    6.46    3.00
  -8 -24  -5    3.09    4.12
  -8 -24  -6    2.82    3.37
  -8 -24  -7    2.88    3.10
  -8 -24  -8    3.73    3.35
  -8 -26   7    4.52    3.29
  -8 -26   6    1.33    2.79
  -8 -26   5    6.41    3.54
  -8 -26   5    1.25    1.62
  -8 -26   4    5.84    2.46
  -8 -26   4    2.42    1.70
  -8 -26   4    0.49    1.34
  -8 -26   3    3.68    2.42
  -8 -26   3    5.97    2.41
  -8 -26   3    3.15    1.69
  -8 -26   2   10.80    2.38
  -8 -26   2    7.39    2.97
  -8 -26   2    5.49    1.98
  -8 -26   1    6.59    2.75
  -8 -26   1   10.48    3.11
  -8 -26   1    5.57    2.32
  -8 -26   0    8.44    2.81
  -8 -26   0    7.45    3.07
  -8 -26   0    2.29    1.66
  -8 -26  -1    5.97    2.13
  -8 -26  -1    8.52    3.32
  -8 -26  -2    2.75    1.19
  -8 -26  -2    0.51    1.83
  -8 -26  -3    5.84    2.78
  -8 -26  -4    6.06    3.11
  -8 -26  -5   10.14    3.14
  -8 -26  -6    7.04    3.18
  -8 -28   5    2.59    2.92
  -8 -28   4    1.44    3.65
  -8 -28   4    3.63    1.74
  -8 -28   4    3.40    1.71
  -8 -28   3    0.32    2.04
  -8 -28   3    1.48    1.62
  -8 -28   2    8.33    2.96
  -8 -28   2    0.85    2.49
  -8 -28   2    4.88    1.87
  -8 -28   1    2.42    2.39
  -8 -28   1    4.44    2.60
  -8 -28   1    3.19    2.14
  -8 -28   0   -0.30    1.76
  -8 -28   0    6.23    2.67
  -8 -28  -1    0.76    1.46
  -8 -28  -1    7.83    2.75
  -8 -28  -2    4.70    2.94
  -8 -28  -2    2.87    1.83
  -8 -28  -3   -1.77    3.08
  -8 -28  -4    1.67    3.33
  -8 -28  -5    2.85    2.76
  -8 -30   3    2.54    2.11
  -8 -30   2    1.61    2.83
  -8 -30   2    2.74    1.85
  -8 -30   1    3.22    2.44
  -8 -30   1    3.69    2.89
  -8 -30   1    4.19    2.24
  -8 -30   0    4.72    1.95
  -8 -30   0    8.33    3.23
  -8 -30  -1    1.93    1.61
  -8 -30  -1    4.93    2.39
  -8 -30  -2    4.61    2.58
   9 -29  -3   14.60    3.97
  -9  29   3    6.74    3.99
   9 -29  -2    7.27    3.54
  -9  29   2    5.46    3.43
   9 -29  -1   12.24    5.04
  -9  29   1    6.73    4.69
   9 -29   0   13.21    4.11
  -9  29   0    1.23    2.97
   9 -29   1    4.62    3.25
  -9  29  -1    1.65    2.47
  -9  29  -2    0.05    2.73
   9 -27  -6    5.61    3.99
  -9  27   6    5.73    2.69
  -9  27   6    8.89    3.95
   9 -27  -5   10.04    3.60
  -9  27   5    1.26    1.95
  -9  27   5    7.02    3.57
   9 -27  -4    2.07    3.41
  -9  27   4    1.49    3.24
   9 -27  -3    4.11    3.51
  -9  27   3    4.27    3.26
   9 -27  -2    7.42    4.52
  -9  27   2    5.68    3.17
   9 -27  -1   10.77    4.91
  -9  27   1   10.25    4.44
   9 -27   0    6.58    4.04
  -9  27   0    6.11    2.81
   9 -27   1    4.01    3.12
  -9  27  -1    1.36    2.29
   9 -27   2   -0.69    2.36
  -9  27  -2    4.91    2.79
   9 -27   3    1.94    1.49
  -9  27  -3   -0.73    3.37
  -9  27  -3    0.94    2.53
   9 -27   4   -0.76    1.49
  -9  27  -4    2.18    1.54
   9 -25  -8    1.82    3.08
  -9  25   8    2.59    4.20
  -9  25   8   -3.03    3.49
   9 -25  -7    2.23    3.26
  -9  25   7    2.68    3.81
  -9  25   7    6.26    3.64
   9 -25  -6    4.72    3.42
  -9  25   6   -0.52    3.93
  -9  25   6    3.39    3.46
   9 -25  -5   10.20    5.22
  -9  25   5    9.77    5.13
   9 -25  -4   11.30    3.75
  -9  25   4    7.54    3.55
  -9  25   4    8.81    3.50
   9 -25  -3   14.41    4.22
  -9  25   3   17.93    5.19
   9 -25  -2   19.13    4.59
  -9  25   2    2.99    3.14
   9 -25  -1    2.88    3.26
  -9  25   1    7.01    2.73
   9 -25   0    4.31    2.96
  -9  25   0    8.85    2.63
   9 -25   1   -1.12    3.26
  -9  25  -1    5.94    2.30
   9 -25   2    0.69    2.29
  -9  25  -2   -0.36    2.64
   9 -25   3    2.79    1.66
  -9  25  -3    4.23    1.97
   9 -25   4    3.01    1.82
  -9  25  -4    1.30    3.60
  -9  25  -4    3.97    2.41
   9 -25   5    3.85    1.61
  -9  25  -5    4.72    4.29
  -9  25  -5    4.19    2.34
  -9  25  -6    2.05    0.72
   9 -23  -9    2.61    2.93
  -9  23   9   -1.63    3.36
   9 -23  -8    1.71    2.96
  -9  23   8    5.21    3.37
   9 -23  -7    4.42    3.07
  -9  23   7    7.17    3.42
   9 -23  -6    4.01    2.91
  -9  23   6    2.51    3.56
  -9  23   6    3.46    3.15
   9 -23  -5    2.11    2.98
  -9  23   5   -0.43    2.43
  -9  23   5    3.20    2.90
   9 -23  -4    1.74    2.91
   9 -23  -4    2.09    2.90
  -9  23   4    0.45    1.87
  -9  23   4    0.79    2.70
   9 -23  -3   10.47    3.27
  -9  23   3    3.99    2.83
   9 -23  -2   22.34    4.23
  -9  23   2    4.59    2.22
  -9  23   2    7.36    2.85
   9 -23  -1   -2.26    2.71
  -9  23   1    1.33    2.28
   9 -23   0   -0.64    2.44
  -9  23   0    1.24    2.15
   9 -23   1   -0.59    2.89
  -9  23  -1    0.90    1.90
   9 -23   2    3.48    2.35
  -9  23  -2    3.25    2.96
  -9  23  -2   -1.58    2.39
   9 -23   3    1.69    1.62
  -9  23  -3    2.50    1.63
   9 -23   4    0.48    1.84
  -9  23  -4   -3.04    3.20
  -9  23  -4   -0.18    1.81
   9 -23   5   -0.02    1.11
  -9  23  -5    0.00    3.32
  -9  23  -5    1.71    0.91
  -9  23  -6   -4.00    3.77
  -9  23  -6    0.94    0.57
  -9  23  -7    0.60    3.92
  -9  23  -7    2.41    1.27
   9 -21 -10    1.07    3.12
  -9  21  10   -3.96    3.31
   9 -21  -9    0.24    2.92
  -9  21   9    2.02    3.17
   9 -21  -8    0.70    2.71
  -9  21   8    6.77    3.15
   9 -21  -7    9.08    3.67
  -9  21   7    0.63    3.16
   9 -21  -6    5.43    2.73
  -9  21   6    2.68    3.07
   9 -21  -5    9.34    3.19
  -9  21   5    7.59    3.18
   9 -21  -4    2.51    2.93
   9 -21  -4    1.97    2.92
  -9  21   4    4.04    2.37
  -9  21   4    7.37    2.68
   9 -21  -3    5.23    3.10
  -9  21   3    9.01    2.09
  -9  21   3    3.16    2.70
   9 -21  -2   21.21    4.92
  -9  21   2   17.41    4.59
   9 -21  -1    8.40    3.56
  -9  21   1   17.48    2.97
   9 -21   0    4.58    2.93
  -9  21   0   15.30    3.38
   9 -21   1    4.74    3.08
  -9  21  -1    4.88    2.04
   9 -21   2    6.18    2.57
  -9  21  -2    4.99    2.51
   9 -21   3    6.08    1.83
  -9  21  -3    4.17    2.12
   9 -21   4    2.90    2.13
  -9  21  -4    3.18    1.58
   9 -21   5    1.79    1.33
  -9  21  -5    9.69    3.27
  -9  21  -5    1.82    1.19
  -9  21  -6    3.88    3.65
  -9  21  -6    1.95    1.21
  -9  21  -7    3.97    3.71
  -9  21  -7    3.03    1.62
  -9  21  -8    2.76    3.70
  -9  21  -8    3.83    1.87
   9 -19 -11    1.85    3.10
  -9  19  11   -4.26    3.19
   9 -19 -10   -0.84    2.97
  -9  19  10    6.66    3.17
   9 -19  -9    1.23    2.71
  -9  19   9    1.55    3.01
   9 -19  -8    3.32    2.49
  -9  19   8    3.21    3.00
   9 -19  -7    6.07    2.64
  -9  19   7    7.20    3.22
   9 -19  -6    5.72    2.63
  -9  19   6    9.41    3.12
   9 -19  -5   12.06    3.12
  -9  19   5    9.29    3.09
   9 -19  -4    8.78    3.31
  -9  19   4   17.28    3.26
   9 -19  -3   13.05    3.43
  -9  19   3   19.22    2.93
  -9  19   3    9.18    3.23
   9 -19  -2   21.56    5.06
  -9  19   2   24.49    3.67
   9 -19  -1   59.80    5.73
  -9  19   1   42.57    4.71
  -9  19   1   48.61    4.99
   9 -19   0   46.70    5.30
  -9  19   0   16.00    4.69
   9 -19   1   18.15    4.30
  -9  19  -1   25.28    2.85
   9 -19   2    9.80    2.32
  -9  19  -2   20.26    3.40
  -9  19  -2   14.39    2.16
   9 -19   3   10.01    1.90
  -9  19  -3   12.95    3.53
  -9  19  -3    8.20    2.24
   9 -19   4   11.13    2.64
  -9  19  -4    9.74    1.42
   9 -19   5    9.03    2.25
  -9  19  -5    7.84    3.56
  -9  19  -5    7.74    1.77
  -9  19  -6    4.68    3.80
  -9  19  -6    7.55    1.74
  -9  19  -7    4.62    3.51
  -9  19  -7    3.90    1.85
  -9  19  -8   -1.12    3.19
  -9  19  -8    0.74    1.96
  -9  19  -9    3.28    3.01
  -9  19  -9    4.67    2.23
   9 -17 -11    3.41    2.83
  -9  17  11   -2.42    3.08
   9 -17 -10    3.11    2.77
  -9  17  10    2.66    3.11
   9 -17  -9    4.98    2.57
  -9  17   9    0.81    2.93
   9 -17  -8    3.67    2.27
  -9  17   8    5.10    2.85
  -9  17   8    3.39    2.88
   9 -17  -7    2.07    2.87
  -9  17   7    2.57    2.68
   9 -17  -6   -0.18    2.10
  -9  17   6    4.05    2.42
   9 -17  -5    3.39    2.17
  -9  17   5   -2.69    2.32
   9 -17  -4   -0.08    2.35
  -9  17   4    8.00    2.44
   9 -17  -3    2.69    2.32
  -9  17   3    3.49    2.21
   9 -17  -2    3.52    2.06
  -9  17   2   -1.65    1.97
  -9  17   2   -1.03    2.00
   9 -17  -1    2.93    2.89
  -9  17   1    2.42    1.92
  -9  17   1   -2.91    1.96
   9 -17   0    3.36    2.84
  -9  17   0   -7.61    2.59
   9 -17   1    3.89    1.88
  -9  17  -1   -0.51    1.68
   9 -17   2    0.86    1.66
  -9  17  -2    5.15    2.32
  -9  17  -2    0.95    1.48
   9 -17   3   -0.64    1.98
  -9  17  -3    6.92    2.50
  -9  17  -3   -2.47    1.69
   9 -17   4    1.62    1.60
  -9  17  -4   -0.67    2.62
   9 -17   5    0.67    2.02
  -9  17  -5   -1.71    2.78
  -9  17  -5    3.02    1.31
  -9  17  -6    2.74    2.69
  -9  17  -6   -3.79    1.95
  -9  17  -7    1.95    2.91
  -9  17  -7    0.40    1.58
  -9  17  -8    3.96    2.96
  -9  17  -8    0.48    2.32
  -9  17  -9   -1.14    2.52
  -9  17  -9    2.00    1.62
  -9  17 -10   -0.52    1.61
  -9  17 -10    5.88    2.30
   9 -15 -12    4.18    3.04
  -9  15  12   -6.89    3.11
   9 -15 -11    3.13    2.70
  -9  15  11   -3.57    2.92
   9 -15 -10    0.89    2.55
  -9  15  10    3.29    2.84
   9 -15  -9    3.29    2.35
  -9  15   9   -0.38    2.72
   9 -15  -8    2.47    2.09
  -9  15   8    1.22    2.67
   9 -15  -7    6.08    2.20
  -9  15   7    5.51    2.72
   9 -15  -6    3.34    2.10
  -9  15   6    5.52    2.52
   9 -15  -5    7.42    2.42
  -9  15   5    7.67    2.62
   9 -15  -4    7.68    2.35
  -9  15   4    5.28    2.52
   9 -15  -3   11.53    2.64
  -9  15   3   10.14    2.65
   9 -15  -2   29.50    3.37
  -9  15   2   24.48    3.44
   9 -15  -1   48.86    4.59
  -9  15   1   41.91    4.44
  -9  15   1   42.17    4.45
   9 -15   0   32.47    3.86
  -9  15   0   35.20    3.77
  -9  15   0   38.14    4.71
  -9  15  -1   24.74    3.28
  -9  15  -1   17.39    2.41
   9 -15   2   16.78    2.26
  -9  15  -2   19.54    3.59
  -9  15  -2   10.91    1.76
   9 -15   3    9.26    1.95
  -9  15  -3   16.26    2.90
  -9  15  -3   10.89    1.56
   9 -15   4   12.07    2.03
  -9  15  -4    8.12    3.24
  -9  15  -4   13.31    2.37
   9 -15   5   11.84    1.99
  -9  15  -5    8.15    3.17
  -9  15  -5   12.06    2.62
  -9  15  -6    9.54    2.91
  -9  15  -6    7.87    2.00
  -9  15  -7    4.27    3.01
  -9  15  -7    6.93    2.48
  -9  15  -8   -2.40    2.65
  -9  15  -8    3.03    1.85
  -9  15  -9    1.14    2.15
  -9  15  -9   -1.68    2.47
  -9  15 -10    3.84    1.86
  -9  15 -10    2.39    2.74
   9 -13 -12   -0.80    2.80
  -9  13  12    0.85    3.02
   9 -13 -11    3.78    2.81
  -9  13  11    4.57    3.06
   9 -13 -10   -0.57    2.37
  -9  13  10    3.37    2.65
   9 -13  -9    3.07    2.07
  -9  13   9    2.79    2.67
   9 -13  -8   -0.48    1.86
  -9  13   8    2.55    2.44
   9 -13  -7    2.85    2.01
  -9  13   7    5.93    2.50
   9 -13  -6    1.34    1.92
  -9  13   6    1.37    2.27
   9 -13  -5    3.25    1.94
  -9  13   5    0.13    2.17
   9 -13  -4    0.01    1.87
  -9  13   4   -1.36    2.05
   9 -13  -3    1.28    1.82
  -9  13   3    3.31    2.04
   9 -13  -2    0.35    1.86
  -9  13   2    1.01    1.94
   9 -13  -1    7.33    2.19
  -9  13   1    8.92    2.21
   9 -13   0    6.50    2.06
  -9  13   0    8.48    2.28
  -9  13   0    5.70    2.60
   9 -13   1    3.66    1.70
  -9  13  -1   -0.79    2.08
  -9  13  -1    3.67    1.46
   9 -13   2    6.30    1.79
  -9  13  -2    6.14    2.62
  -9  13  -2    2.87    1.53
   9 -13   3    1.20    1.71
  -9  13  -3    7.17    2.92
  -9  13  -3    3.02    1.44
   9 -13   4   -0.89    2.37
  -9  13  -4    6.50    3.37
  -9  13  -4    7.57    1.63
   9 -13   5    2.63    1.71
  -9  13  -5    6.04    2.38
  -9  13  -6    5.91    2.41
  -9  13  -6    4.76    1.98
  -9  13  -7    6.21    2.44
  -9  13  -7    0.38    1.90
  -9  13  -8   -2.28    2.22
  -9  13  -8    2.21    2.46
  -9  13  -9    1.80    1.73
  -9  13  -9    0.74    2.51
  -9  13 -10    2.59    1.89
  -9  13 -10    0.97    1.94
  -9  13 -11    2.79    2.46
  -9  13 -11    1.14    2.66
   9 -11 -13   -1.65    3.03
  -9  11  13    1.59    3.13
   9 -11 -12    4.19    2.79
  -9  11  12   -2.83    3.03
   9 -11 -11    4.31    2.65
  -9  11  11    1.32    2.92
   9 -11 -10    4.96    2.21
  -9  11  10    2.61    2.78
   9 -11  -9    3.21    2.04
  -9  11   9    5.36    2.64
   9 -11  -8    2.64    2.54
  -9  11   8    2.76    2.42
   9 -11  -7    0.25    1.70
  -9  11   7   -0.68    2.26
   9 -11  -6    5.17    1.89
  -9  11   6   -3.52    2.19
   9 -11  -5   -1.86    1.73
  -9  11   5    2.29    2.00
   9 -11  -4    1.23    1.76
  -9  11   4   -4.30    1.98
   9 -11  -3    1.67    1.65
  -9  11   3   -3.54    1.93
   9 -11  -2   -1.40    1.72
  -9  11   2    1.89    1.82
   9 -11  -1   -2.00    1.82
  -9  11   1   -4.70    2.44
   9 -11   0   -3.85    1.84
  -9  11   0   -5.14    2.14
   9 -11   1   -1.34    1.55
  -9  11  -1    1.43    1.86
  -9  11  -1    0.93    1.95
   9 -11   2   -0.28    1.45
  -9  11  -2    0.37    1.90
  -9  11  -2   -0.25    1.40
  -9  11  -3    0.19    1.81
  -9  11  -3    1.46    1.35
   9 -11   4    0.52    1.56
  -9  11  -4    3.33    2.02
  -9  11  -4   -0.04    1.60
  -9  11  -5    2.53    2.75
  -9  11  -5    0.65    1.71
  -9  11  -6   -0.94    1.92
  -9  11  -6    0.44    2.39
  -9  11  -7    0.42    2.10
  -9  11  -7   -2.70    1.84
  -9  11  -8    2.04    1.96
  -9  11  -8    4.76    2.54
  -9  11  -9    1.34    1.21
  -9  11  -9    1.26    1.81
  -9  11 -10    3.77    2.04
  -9  11 -10    1.49    1.73
  -9  11 -11    0.33    1.87
  -9  11 -11   -2.04    2.33
   9  -9 -13   -4.79    3.10
  -9   9  13    8.88    3.17
   9  -9 -12    0.52    2.84
  -9   9  12    3.83    4.04
   9  -9 -11    3.56    2.44
  -9   9  11    2.24    2.84
   9  -9 -10    0.58    2.08
  -9   9  10   -1.74    2.50
  -9   9  10   -3.29    2.55
   9  -9  -9    2.55    2.11
  -9   9   9    9.59    2.68
   9  -9  -8    2.06    1.95
  -9   9   8    7.09    2.43
   9  -9  -7    7.31    2.37
  -9   9   7   13.51    2.72
   9  -9  -6    7.68    2.33
  -9   9   6   15.48    2.68
   9  -9  -5    6.44    2.06
  -9   9   5    7.99    2.40
   9  -9  -4    3.37    2.28
  -9   9   4   21.96    2.63
   9  -9  -3   53.66    4.19
  -9   9   3   53.59    5.03
   9  -9  -2   75.01    5.47
  -9   9   2   69.15    5.88
   9  -9  -1   95.43    6.35
  -9   9   1   80.40    5.79
  -9   9   0   79.00    6.91
   9  -9   1   67.87    5.12
  -9   9  -1   73.64    5.90
   9  -9   2   38.56    3.19
  -9   9  -2   35.69    3.59
   9  -9   3   26.57    2.67
  -9   9  -3   24.19    3.41
  -9   9  -3   21.36    2.60
  -9   9  -4   22.75    2.89
  -9   9  -4   22.70    2.74
  -9   9  -5   20.26    2.81
  -9   9  -6    9.89    2.82
  -9   9  -6    7.36    2.98
  -9   9  -7    4.98    1.98
  -9   9  -7    4.22    1.86
  -9   9  -8    1.05    1.54
  -9   9  -8    0.08    2.13
  -9   9  -9    1.20    1.22
  -9   9  -9    0.86    1.71
  -9   9 -10    4.06    2.21
  -9   9 -10    4.25    1.92
  -9   9 -11    3.98    2.15
  -9   9 -11    2.49    2.64
  -9   9 -12    2.45    2.98
  -9   9 -12    5.01    2.91
   9  -7 -13    1.11    2.78
  -9   7  13    1.65    3.07
   9  -7 -12    1.37    2.57
  -9   7  12    2.06    2.93
   9  -7 -11    3.81    2.33
  -9   7  11   -1.19    2.73
   9  -7 -10    0.23    2.83
  -9   7  10    3.46    2.56
   9  -7  -9    4.03    1.99
  -9   7   9   -1.22    2.34
   9  -7  -8   -1.46    1.93
  -9   7   8    1.59    2.18
   9  -7  -7   -1.26    1.92
  -9   7   7   -2.74    2.20
   9  -7  -6    3.48    1.86
   9  -7  -6    3.07    1.82
  -9   7   6   -0.08    2.13
   9  -7  -5    0.31    1.68
  -9   7   5    0.51    1.91
   9  -7  -4    0.51    1.54
  -9   7   4    1.19    1.91
   9  -7  -3   12.63    2.15
  -9   7   3   12.68    2.46
   9  -7  -2   17.80    2.34
  -9   7   2   14.98    2.30
   9  -7  -1   16.70    2.43
  -9   7   1   19.07    2.45
   9  -7   0   17.04    2.38
  -9   7   0   22.17    2.35
   9  -7   1   21.43    2.54
  -9   7  -1   16.64    2.86
   9  -7   2   13.31    2.14
  -9   7  -2    7.72    2.00
   9  -7   3    4.96    1.87
  -9   7  -3    8.52    2.07
   9  -7   4    5.08    1.87
  -9   7  -4    3.89    1.73
  -9   7  -4    5.35    1.88
  -9   7  -5    9.48    1.91
  -9   7  -6    1.51    2.00
  -9   7  -6    0.70    1.69
  -9   7  -7    3.08    1.48
  -9   7  -7   -0.69    1.80
  -9   7  -8   -0.39    1.56
  -9   7  -8   -2.54    1.72
  -9   7  -9    1.90    1.99
  -9   7  -9    0.94    1.59
  -9   7 -10    3.43    2.20
  -9   7 -10    2.32    1.75
  -9   7 -11    3.05    2.95
  -9   7 -11    1.14    2.52
  -9   7 -12    2.40    3.18
  -9   7 -12    4.45    2.88
   9  -5 -14    1.01    3.96
  -9   5  14    3.62    3.26
   9  -5 -13   -0.44    3.70
  -9   5  13   -3.50    3.13
   9  -5 -12    7.10    3.47
  -9   5  12   -1.29    2.90
   9  -5 -11    0.35    2.34
  -9   5  11    4.74    2.64
   9  -5 -10   -1.02    2.07
  -9   5  10    3.61    2.41
   9  -5  -9    4.48    2.28
  -9   5   9    3.26    3.26
   9  -5  -8    3.04    2.18
  -9   5   8    2.54    2.34
   9  -5  -7    2.86    2.22
  -9   5   7   12.58    2.42
   9  -5  -6    1.69    2.21
  -9   5   6   15.61    2.44
   9  -5  -5    4.28    1.85
  -9   5   5    9.89    2.19
   9  -5  -4   11.78    1.98
  -9   5   4   10.97    2.41
   9  -5  -3   24.51    2.69
  -9   5   3   26.13    2.99
   9  -5  -2   37.27    3.29
  -9   5   2   34.11    3.46
  -9   5   1   53.70    4.14
   9  -5   0   50.40    3.78
  -9   5   0   39.36    3.25
   9  -5   1   29.75    3.77
  -9   5  -1   31.16    2.86
   9  -5   2   23.30    2.95
  -9   5  -2   27.31    2.86
  -9   5  -2   26.21    2.70
   9  -5   3   15.67    2.24
  -9   5  -3    9.94    1.91
  -9   5  -3   10.52    2.95
  -9   5  -4   12.04    2.36
  -9   5  -4   12.80    2.10
  -9   5  -5    6.63    1.56
  -9   5  -5    7.73    2.01
  -9   5  -6    2.88    1.26
  -9   5  -6    1.64    1.82
  -9   5  -7    2.68    1.40
  -9   5  -7    3.24    1.69
  -9   5  -8    1.27    0.95
  -9   5  -8    2.93    2.24
  -9   5  -9    4.49    2.82
  -9   5  -9    2.69    1.77
  -9   5 -10   -3.53    2.88
  -9   5 -10    2.09    1.94
  -9   5 -11    4.31    2.39
  -9   5 -12    0.07    3.09
   9  -3 -14    1.21    2.78
  -9   3  14    0.88    3.02
   9  -3 -13    6.59    2.90
  -9   3  13    3.51    3.26
   9  -3 -12    2.27    2.63
  -9   3  12    3.61    2.86
   9  -3 -11    6.34    2.48
  -9   3  11    2.03    2.69
   9  -3 -10    1.04    2.24
  -9   3  10   -2.48    2.30
   9  -3  -9    4.22    3.30
  -9   3   9    6.81    2.38
   9  -3  -8    5.02    2.27
  -9   3   8    3.56    2.27
   9  -3  -7    4.48    2.26
  -9   3   7    7.63    2.27
   9  -3  -6    9.12    2.15
  -9   3   6   11.39    2.39
   9  -3  -5    6.49    1.84
  -9   3   5    9.90    2.17
   9  -3  -4    6.02    1.89
  -9   3   4    8.73    2.06
   9  -3  -3   27.14    2.92
  -9   3   3   32.91    2.87
   9  -3  -2   48.26    3.90
  -9   3   2   45.35    3.95
   9  -3  -1   60.18    4.38
  -9   3   1   58.18    4.17
   9  -3   0   59.96    4.48
  -9   3   0   53.12    4.14
   9  -3   1   49.03    3.94
  -9   3  -1   43.23    3.57
   9  -3   2   28.29    2.87
  -9   3  -2   28.41    2.89
   9  -3   3    4.58    1.98
  -9   3  -3   10.32    1.49
  -9   3  -3    5.95    1.86
  -9   3  -4   11.48    2.02
  -9   3  -4   14.37    2.23
  -9   3  -5   14.38    2.14
  -9   3  -5   16.14    2.48
  -9   3  -6   10.63    1.85
  -9   3  -6   10.68    2.06
  -9   3  -7    4.90    1.03
  -9   3  -7    8.44    2.04
  -9   3  -8    1.96    1.23
  -9   3  -8    9.05    2.66
  -9   3  -9    0.28    1.67
  -9   3  -9    2.14    1.94
  -9   3 -10    4.89    2.48
  -9   3 -10    8.13    2.50
  -9   3 -11    0.78    2.33
  -9   3 -11    3.16    2.42
  -9   3 -12    5.37    3.41
  -9   3 -12    0.27    2.79
   9  -1 -14    2.80    3.24
  -9   1  14    6.78    3.13
   9  -1 -13   -1.16    2.82
  -9   1  13   -0.44    2.80
   9  -1 -12    3.66    2.83
  -9   1  12    3.93    2.77
   9  -1 -11    0.33    3.39
  -9   1  11   -2.44    2.43
  -9   1  11   -1.21    2.52
   9  -1 -10    4.96    2.38
  -9   1  10    0.17    2.24
   9  -1  -9   -0.30    2.16
   9  -1  -9   -0.54    2.12
  -9   1   9    0.29    2.11
   9  -1  -8   12.81    3.10
  -9   1   8    1.28    2.14
   9  -1  -7    3.10    1.96
  -9   1   7    5.09    1.98
   9  -1  -6    4.19    1.89
  -9   1   6    7.09    1.99
   9  -1  -5    3.73    1.82
  -9   1   5    7.04    1.97
   9  -1  -4   15.36    2.18
  -9   1   4   13.61    2.14
   9  -1  -3   39.32    3.31
  -9   1   3   33.13    3.39
   9  -1  -2   36.45    3.33
  -9   1   2   43.03    3.49
   9  -1  -1   46.94    3.94
  -9   1   1   51.26    3.91
   9  -1   0   41.31    3.51
  -9   1   0   46.03    3.55
   9  -1   1   44.94    3.58
  -9   1  -1   40.70    3.58
   9  -1   2   34.39    3.00
  -9   1  -2   25.27    2.80
  -9   1  -3    7.61    1.75
  -9   1  -3    4.50    1.92
  -9   1  -4    7.08    1.07
  -9   1  -4    6.34    1.81
  -9   1  -5    6.17    1.35
  -9   1  -5    6.29    1.85
  -9   1  -6    3.56    1.03
  -9   1  -6    5.19    1.92
  -9   1  -7    0.92    1.02
  -9   1  -7    2.64    1.90
  -9   1  -8   -0.57    1.99
  -9   1  -8    2.87    1.86
  -9   1  -9    2.08    1.89
  -9   1  -9    2.16    2.81
  -9   1 -10    0.60    2.20
  -9   1 -10    0.79    2.33
  -9   1 -11    5.57    2.50
  -9   1 -11    2.49    2.91
  -9   1 -12   -1.06    2.51
  -9   1 -12    2.59    3.01
   9   1 -14    0.84    2.97
  -9  -1  14    4.35    2.81
   9   1 -13    2.93    2.76
  -9  -1  13   -0.74    2.63
   9   1 -12    1.37    2.66
  -9  -1  12   -4.78    2.52
   9   1 -11    0.98    2.41
  -9  -1  11    1.87    2.29
  -9  -1  11    0.49    2.39
   9   1 -10   -0.37    3.11
  -9  -1  10    3.48    2.12
   9   1  -9    2.16    2.14
  -9  -1   9   -1.55    2.00
   9   1  -8   -1.09    1.95
  -9  -1   8   -0.45    1.94
   9   1  -7    2.13    1.85
  -9  -1   7    1.63    1.82
   9   1  -6    1.93    2.60
  -9  -1   6    7.56    1.96
   9   1  -5    4.58    1.80
  -9  -1   5    6.28    1.89
   9   1  -4   13.90    2.19
  -9  -1   4   13.15    2.02
   9   1  -3   39.22    3.27
  -9  -1   3   37.91    3.47
   9   1  -2   43.98    3.55
  -9  -1   2   37.90    3.23
   9   1  -1   51.87    4.66
  -9  -1   1   45.72    3.78
   9   1   0   45.43    3.83
  -9  -1   0   47.84    3.77
   9   1   1   43.81    3.40
  -9  -1  -1   37.47    3.34
   9   1   2   26.64    2.86
  -9  -1  -2   25.71    2.86
  -9  -1  -3    8.22    1.29
  -9  -1  -3    6.08    1.81
  -9  -1  -4    8.09    1.51
  -9  -1  -4    6.57    1.99
  -9  -1  -5    6.97    0.98
  -9  -1  -5    4.41    2.01
  -9  -1  -6    3.93    0.85
  -9  -1  -6    1.91    1.81
  -9  -1  -7    3.51    1.91
  -9  -1  -8    7.31    3.21
  -9  -1  -8    3.83    2.14
  -9  -1  -9    3.94    2.17
  -9  -1  -9    4.89    2.48
  -9  -1 -10    0.76    1.85
  -9  -1 -10   -0.30    2.73
  -9  -1 -11    5.07    2.45
  -9  -1 -11   -1.13    3.34
  -9  -1 -12    0.58    2.64
  -9  -1 -12    4.39    3.58
   9   3 -14    3.03    3.81
  -9  -3  14    3.53    2.69
   9   3 -13   -0.42    3.52
  -9  -3  13   -2.05    2.48
   9   3 -12    2.52    3.65
  -9  -3  12    5.54    2.56
   9   3 -11    7.21    2.61
  -9  -3  11    3.33    2.51
   9   3 -10    0.87    2.07
  -9  -3  10    0.77    1.96
   9   3  -9    7.25    2.98
  -9  -3   9    3.02    2.86
   9   3  -8    6.88    2.27
  -9  -3   8   10.13    2.16
   9   3  -7   12.43    3.14
  -9  -3   7   11.01    2.23
   9   3  -6   17.19    2.44
  -9  -3   6   18.64    2.45
   9   3  -5   13.30    2.03
  -9  -3   5   10.34    2.05
   9   3  -4   12.26    1.93
  -9  -3   4    8.90    1.99
   9   3  -3   40.51    3.28
  -9  -3   3   37.00    3.34
   9   3  -2   44.06    3.28
  -9  -3   2   47.82    3.70
   9   3  -1   60.87    5.40
  -9  -3   1   55.31    4.20
   9   3   0   47.05    3.55
   9   3   1   41.27    3.52
  -9  -3  -1   44.89    3.67
  -9  -3  -2   23.50    2.53
  -9  -3  -3    3.65    1.76
  -9  -3  -4   11.48    1.28
  -9  -3  -4    6.25    2.11
  -9  -3  -5    8.95    0.65
  -9  -3  -5   10.89    2.02
  -9  -3  -6   10.53    2.16
  -9  -3  -7    5.56    1.69
  -9  -3  -7   11.91    2.31
  -9  -3  -8    2.47    2.35
  -9  -3  -8    1.11    2.26
  -9  -3  -9    2.56    2.32
  -9  -3  -9    4.94    2.70
  -9  -3 -10    1.95    2.16
  -9  -3 -10    2.27    3.17
  -9  -3 -11    2.66    2.05
  -9  -3 -11    2.80    3.61
  -9  -3 -12    8.00    2.89
  -9  -3 -12    3.41    4.24
   9   5 -13    0.03    2.26
  -9  -5  13    1.36    2.24
   9   5 -12    3.25    3.08
  -9  -5  12    2.06    2.28
   9   5 -11    3.08    2.90
  -9  -5  11    0.96    2.04
  -9  -5  11    1.44    2.14
   9   5 -10    2.17    2.14
  -9  -5  10    4.26    1.95
   9   5  -9    2.91    2.84
  -9  -5   9    1.46    2.50
   9   5  -8    1.63    1.84
  -9  -5   8    1.27    1.71
   9   5  -7    2.14    2.30
  -9  -5   7    2.40    1.65
   9   5  -6    8.12    2.65
  -9  -5   6   11.30    1.91
   9   5  -5   13.77    2.01
  -9  -5   5   15.90    1.90
   9   5  -4   20.40    2.20
  -9  -5   4   16.92    2.28
   9   5  -3   27.36    2.30
  -9  -5   3   28.39    3.36
   9   5  -2   36.37    3.70
  -9  -5   2   33.54    3.06
   9   5  -1   42.96    3.15
  -9  -5   1   51.47    4.71
   9   5   0   41.31    3.28
  -9  -5   0   44.55    3.33
  -9  -5  -1   23.25    2.68
  -9  -5  -2   16.31    2.13
  -9  -5  -3    6.27    1.85
  -9  -5  -4    5.14    0.73
  -9  -5  -4    9.73    1.73
  -9  -5  -5    5.61    1.73
  -9  -5  -6    8.06    1.67
  -9  -5  -6    5.44    2.01
  -9  -5  -7    8.29    3.75
  -9  -5  -7    5.25    2.28
  -9  -5  -8    1.29    2.49
  -9  -5  -8    4.54    2.50
  -9  -5  -9    2.91    2.35
  -9  -5  -9    0.27    2.94
  -9  -5 -10    3.80    2.46
  -9  -5 -10    4.83    3.38
  -9  -5 -11    1.32    2.27
  -9  -5 -11    2.60    3.36
  -9  -5 -12    4.68    2.33
  -9  -5 -12    5.61    3.80
   9   7 -13   -1.46    2.27
  -9  -7  13    2.95    2.70
   9   7 -12    4.28    3.31
  -9  -7  12    6.61    3.01
   9   7 -11    3.74    2.92
  -9  -7  11    1.42    1.87
  -9  -7  11    0.57    1.99
   9   7 -10   -1.28    1.91
  -9  -7  10    0.28    2.33
   9   7  -9    3.39    2.40
  -9  -7   9   -0.35    2.30
   9   7  -8    4.14    1.77
  -9  -7   8    5.02    1.70
   9   7  -7    7.16    1.77
  -9  -7   7    7.19    2.30
   9   7  -6    3.24    2.16
  -9  -7   6   10.15    1.67
   9   7  -5    8.36    2.11
  -9  -7   5    7.27    1.54
   9   7  -4    3.30    1.74
  -9  -7   4    5.96    2.16
   9   7  -3   16.74    2.43
  -9  -7   3   16.15    2.15
   9   7  -2   15.42    1.79
  -9  -7   2   16.50    2.10
   9   7  -1   15.79    1.90
  -9  -7   1   13.71    1.98
  -9  -7   0   11.27    2.61
  -9  -7  -1    7.02    1.67
  -9  -7  -2    5.09    1.68
  -9  -7  -3   -1.53    1.39
  -9  -7  -4   -0.43    1.37
  -9  -7  -5    7.88    1.81
  -9  -7  -6   10.95    2.62
  -9  -7  -6   -3.01    2.70
  -9  -7  -7   -0.24    2.70
  -9  -7  -7    8.19    2.92
  -9  -7  -8    0.34    2.54
  -9  -7  -8    3.04    2.94
  -9  -7  -9    2.65    2.44
  -9  -7  -9   -0.43    3.03
  -9  -7 -10    7.49    2.87
  -9  -7 -11    1.38    2.51
  -9  -7 -12    1.26    2.44
   9   9 -13    5.64    2.88
  -9  -9  13    0.54    2.58
   9   9 -12    3.33    2.95
  -9  -9  12    8.72    2.71
   9   9 -11    0.07    2.40
  -9  -9  11    2.03    2.31
   9   9 -10    1.86    2.19
  -9  -9  10    3.36    2.24
   9   9  -9    4.03    2.15
  -9  -9   9    5.86    2.29
   9   9  -8    8.23    2.18
  -9  -9   8   11.62    1.85
   9   9  -7   15.24    1.79
  -9  -9   7   14.27    2.59
   9   9  -6   20.58    1.74
  -9  -9   6   25.19    2.84
   9   9  -5   18.01    1.59
  -9  -9   5   21.69    2.74
   9   9  -4   23.04    1.85
  -9  -9   4   20.58    2.13
   9   9  -3   48.04    2.89
  -9  -9   3   49.98    3.59
   9   9  -2   57.78    3.74
  -9  -9   2   73.07    5.45
  -9  -9   1   79.10    4.82
  -9  -9   0   66.20    4.04
  -9  -9  -1   53.82    3.72
  -9  -9  -2   25.49    2.24
  -9  -9  -3    7.44    2.08
  -9  -9  -4    4.95    2.36
  -9  -9  -5   11.61    3.10
  -9  -9  -5   11.82    3.06
  -9  -9  -6   14.09    3.22
  -9  -9  -6    6.46    3.23
  -9  -9  -7    9.81    3.03
  -9  -9  -7    3.47    3.18
  -9  -9  -8    8.10    3.00
  -9  -9  -9    3.49    2.71
  -9  -9 -10    6.09    3.01
  -9  -9 -11   -2.59    2.83
  -9  -9 -12    6.22    3.05
   9  11 -13   -1.18    1.91
  -9 -11  13    3.12    2.50
   9  11 -12    0.24    1.09
  -9 -11  12    1.56    1.55
   9  11 -11    0.89    1.25
  -9 -11  11    1.82    2.03
   9  11 -10    0.76    1.15
  -9 -11  10    0.62    1.44
   9  11  -9    0.40    1.20
  -9 -11   9   -2.09    1.87
   9  11  -8    0.65    0.94
  -9 -11   8    1.46    1.73
   9  11  -7    1.02    1.22
  -9 -11   7    2.05    1.26
   9  11  -6   -1.28    1.37
  -9 -11   6    0.63    1.21
   9  11  -5   -1.14    1.38
  -9 -11   5    1.06    1.76
   9  11  -4   -0.62    1.51
   9  11  -3    0.76    1.23
  -9 -11   3    2.06    1.82
  -9 -11   2    0.91    1.31
  -9 -11   2    1.12    1.26
  -9 -11   1   -1.64    1.76
  -9 -11   0    0.51    1.12
  -9 -11  -1    0.74    1.16
  -9 -11  -2    0.51    0.66
  -9 -11  -2    2.64    2.12
  -9 -11  -3    0.50    0.40
  -9 -11  -3    0.64    1.87
  -9 -11  -4   -0.34    1.40
  -9 -11  -4    6.83    2.19
  -9 -11  -5    6.84    2.70
  -9 -11  -5    3.08    2.65
  -9 -11  -6    4.77    2.77
  -9 -11  -7    3.72    2.76
  -9 -11  -8   -1.41    2.67
  -9 -11  -9    1.15    2.76
  -9 -11 -11    3.58    3.13
   9  13 -12    1.36    1.45
  -9 -13  12   -0.17    1.79
   9  13 -11    1.20    1.32
  -9 -13  11   -1.87    1.77
   9  13 -10    0.46    1.18
  -9 -13  10    1.15    1.83
   9  13  -9    0.89    1.01
  -9 -13   9    0.17    1.72
   9  13  -8    2.43    1.46
  -9 -13   8    1.55    1.64
   9  13  -7    3.40    1.49
  -9 -13   7    1.91    1.20
   9  13  -6    4.64    1.66
  -9 -13   6    3.34    1.16
   9  13  -5    3.24    1.27
  -9 -13   5    4.05    1.30
  -9 -13   4    1.19    1.30
  -9 -13   3    1.79    1.28
  -9 -13   2    3.47    1.66
  -9 -13   1    5.72    1.36
  -9 -13   0    0.60    1.11
  -9 -13  -1    0.73    0.95
  -9 -13  -1    0.90    1.49
  -9 -13  -2    1.81    0.86
  -9 -13  -2    1.21    1.72
  -9 -13  -3   -0.36    2.28
  -9 -13  -3    8.06    2.82
  -9 -13  -4    4.98    2.34
  -9 -13  -4   -2.59    2.27
  -9 -13  -5    9.61    2.91
  -9 -13  -5    6.43    2.98
  -9 -13  -6    2.68    2.70
  -9 -13  -7    3.19    2.79
  -9 -13  -8    2.00    2.90
  -9 -13  -9    1.30    2.94
  -9 -13 -10    4.92    3.34
  -9 -13 -11   -0.80    3.14
  -9 -15  12    0.18    3.43
   9  15 -11    0.44    1.39
  -9 -15  11    1.68    3.29
  -9 -15  11    1.93    1.51
   9  15 -10    1.17    1.39
  -9 -15  10    1.20    1.65
   9  15  -9    1.74    1.51
  -9 -15   9    1.61    1.58
   9  15  -8    4.62    1.64
  -9 -15   8    2.77    1.58
  -9 -15   7    5.95    1.61
  -9 -15   6    7.47    1.60
  -9 -15   5    9.50    1.94
  -9 -15   4    6.57    1.87
  -9 -15   3   11.78    2.05
  -9 -15   2   12.76    1.47
  -9 -15   2   12.22    1.43
  -9 -15   1   25.73    2.36
  -9 -15   1   24.53    2.03
  -9 -15   0   20.64    1.99
  -9 -15   0   11.21    2.93
  -9 -15  -1    9.25    1.52
  -9 -15  -1    9.60    1.50
  -9 -15  -1    6.54    2.00
  -9 -15  -2    3.68    0.89
  -9 -15  -2    4.90    2.30
  -9 -15  -2    1.20    2.06
  -9 -15  -3    3.88    0.82
  -9 -15  -3    6.13    2.46
  -9 -15  -3    5.30    2.28
  -9 -15  -4    8.84    3.45
  -9 -15  -4    0.58    2.55
  -9 -15  -5    2.03    2.60
  -9 -15  -6    6.35    3.05
  -9 -15  -7    7.04    3.21
  -9 -15  -8    7.41    3.35
  -9 -15  -9    3.14    3.23
  -9 -15 -10    2.64    3.36
  -9 -15 -11    2.26    3.95
  -9 -17  11    5.54    4.21
  -9 -17  10   -0.44    3.39
  -9 -17  10    0.35    1.42
  -9 -17   9   -0.96    3.17
  -9 -17   9   -0.79    1.29
  -9 -17   8   -0.26    2.83
  -9 -17   8    0.61    1.25
  -9 -17   7    3.63    2.62
  -9 -17   7    0.19    1.92
  -9 -17   6    5.62    2.27
  -9 -17   6   -0.45    1.19
  -9 -17   5    1.41    1.92
  -9 -17   5    0.01    1.41
  -9 -17   4    1.55    2.32
  -9 -17   4    0.93    1.47
  -9 -17   3    2.29    1.45
  -9 -17   3   -0.20    1.38
  -9 -17   2    0.59    1.36
  -9 -17   2    1.50    1.19
  -9 -17   1    1.06    1.35
  -9 -17   1    2.11    1.67
  -9 -17   0    2.08    1.58
  -9 -17   0    0.79    1.71
  -9 -17   0    0.63    1.50
  -9 -17  -1    6.00    2.21
  -9 -17  -1   11.12    2.61
  -9 -17  -2    3.60    2.29
  -9 -17  -2    8.16    2.16
  -9 -17  -3    0.29    0.72
  -9 -17  -3    3.38    2.18
  -9 -17  -3   -2.18    2.09
  -9 -17  -4    6.45    2.61
  -9 -17  -4    6.02    2.70
  -9 -17  -5   -0.57    2.49
  -9 -17  -6    5.07    3.00
  -9 -17  -7    0.76    2.81
  -9 -17  -8   -0.61    3.04
  -9 -17  -9    1.09    3.24
  -9 -17 -10   -0.81    3.91
  -9 -19  10    2.89    4.10
  -9 -19   9    1.53    3.58
  -9 -19   9    1.72    1.11
  -9 -19   8    3.14    3.22
  -9 -19   8    1.60    1.16
  -9 -19   7   12.33    2.97
  -9 -19   7    0.38    1.16
  -9 -19   6    8.36    2.68
  -9 -19   6    3.29    1.22
  -9 -19   5    3.24    2.40
  -9 -19   5    3.61    1.45
  -9 -19   4    7.61    2.93
  -9 -19   4    2.53    1.11
  -9 -19   3   11.29    2.27
  -9 -19   3    7.71    1.17
  -9 -19   2    9.59    2.18
  -9 -19   2   13.85    2.53
  -9 -19   2   10.18    2.31
  -9 -19   1   30.40    2.49
  -9 -19   1   33.75    3.04
  -9 -19   1   32.04    2.55
  -9 -19   0   29.64    3.21
  -9 -19   0   32.96    3.03
  -9 -19  -1   15.24    3.83
  -9 -19  -1   23.24    2.61
  -9 -19  -2    7.38    2.61
  -9 -19  -2   17.97    3.44
  -9 -19  -3   13.27    3.59
  -9 -19  -3    6.52    2.73
  -9 -19  -4    3.42    2.61
  -9 -19  -5   10.25    3.21
  -9 -19  -6    4.20    3.04
  -9 -19  -7    3.42    3.16
  -9 -19  -8    7.59    3.64
  -9 -19  -9    5.94    4.33
  -9 -21  10    1.98    4.64
  -9 -21   9   10.95    4.98
  -9 -21   8    4.15    3.74
  -9 -21   8    2.82    0.93
  -9 -21   8    0.75    0.91
  -9 -21   7    1.76    3.18
  -9 -21   7    0.41    1.23
  -9 -21   7    0.92    0.91
  -9 -21   6    4.14    2.90
  -9 -21   6    0.48    1.40
  -9 -21   6    2.16    0.95
  -9 -21   5    2.83    2.49
  -9 -21   5    2.39    1.52
  -9 -21   5    0.08    1.15
  -9 -21   4    4.81    2.30
  -9 -21   4    1.99    1.25
  -9 -21   4    1.91    1.19
  -9 -21   3    3.47    2.08
  -9 -21   3    1.50    1.85
  -9 -21   3    2.92    1.67
  -9 -21   2   10.44    2.40
  -9 -21   2    2.05    2.14
  -9 -21   2    6.41    2.07
  -9 -21   1    0.34    1.52
  -9 -21   1    4.13    1.66
  -9 -21   1    3.78    1.50
  -9 -21   0    8.42    1.92
  -9 -21   0    6.40    1.81
  -9 -21  -1    9.26    2.62
  -9 -21  -1    1.83    1.85
  -9 -21  -2    2.43    1.58
  -9 -21  -2    5.01    2.13
  -9 -21  -2    5.79    2.85
  -9 -21  -3    3.27    2.36
  -9 -21  -3    3.24    2.37
  -9 -21  -4    2.79    2.57
  -9 -21  -5    5.02    2.97
  -9 -21  -6    3.82    3.07
  -9 -21  -7   -2.31    3.19
  -9 -21  -8    5.56    4.13
  -9 -21  -9    4.85    4.39
  -9 -23   8    4.73    3.94
  -9 -23   7    9.70    5.23
  -9 -23   6    4.41    2.90
  -9 -23   6    1.83    1.30
  -9 -23   6    1.14    0.93
  -9 -23   5   -0.15    2.57
  -9 -23   5   -0.32    1.43
  -9 -23   5    0.04    0.92
  -9 -23   4    4.91    2.13
  -9 -23   4   -0.92    1.62
  -9 -23   4    1.76    1.48
  -9 -23   3    5.42    1.95
  -9 -23   3   -0.50    1.77
  -9 -23   3    2.23    1.71
  -9 -23   2    0.56    1.67
  -9 -23   2    1.55    1.35
  -9 -23   2    0.14    1.88
  -9 -23   1   -0.48    1.50
  -9 -23   1   -3.39    1.54
  -9 -23   0    1.28    1.35
  -9 -23   0    1.52    1.61
  -9 -23   0    1.09    1.55
  -9 -23  -1    0.72    1.08
  -9 -23  -1    8.76    2.42
  -9 -23  -1   -1.97    1.65
  -9 -23  -2    3.12    1.47
  -9 -23  -2    4.17    2.09
  -9 -23  -2    1.98    2.80
  -9 -23  -3    3.94    2.34
  -9 -23  -3    1.80    2.31
  -9 -23  -4    4.25    2.65
  -9 -23  -5    4.98    2.94
  -9 -23  -6    5.08    3.73
  -9 -23  -7   -1.39    3.66
  -9 -23  -8    2.20    4.00
  -9 -25   7    2.27    3.04
  -9 -25   6   12.65    4.61
  -9 -25   5    0.91    2.56
  -9 -25   5    3.48    1.65
  -9 -25   5    2.39    1.27
  -9 -25   4    3.17    2.33
  -9 -25   4    2.95    1.86
  -9 -25   4    0.65    1.57
  -9 -25   3    6.41    2.96
  -9 -25   3    4.19    2.07
  -9 -25   3    1.64    1.85
  -9 -25   2    6.43    2.13
  -9 -25   2    3.11    1.70
  -9 -25   2    7.74    2.20
  -9 -25   1    7.15    1.81
  -9 -25   1    0.49    1.69
  -9 -25   1    1.32    1.69
  -9 -25   0    6.26    2.05
  -9 -25   0    0.11    1.80
  -9 -25   0    2.86    1.68
  -9 -25  -1    3.01    2.19
  -9 -25  -1   10.42    2.68
  -9 -25  -1    0.64    1.79
  -9 -25  -2    3.13    1.54
  -9 -25  -2    4.73    2.90
  -9 -25  -3    4.53    2.47
  -9 -25  -3    5.29    2.44
  -9 -25  -4    6.98    3.33
  -9 -25  -5    7.04    3.65
  -9 -25  -6    0.31    3.38
  -9 -27   5    3.96    3.81
  -9 -27   4    4.07    2.55
  -9 -27   4    2.61    2.29
  -9 -27   4    3.94    2.04
  -9 -27   3    0.31    7.11
  -9 -27   3    3.51    2.57
  -9 -27   3    3.14    1.87
  -9 -27   2    3.77    2.84
  -9 -27   2    4.70    2.17
  -9 -27   1    2.99    2.32
  -9 -27   1    3.58    2.08
  -9 -27   1    0.25    1.64
  -9 -27   0    6.18    2.70
  -9 -27   0    3.19    2.30
  -9 -27   0    4.11    1.69
  -9 -27  -1    6.86    2.01
  -9 -27  -1    4.67    2.42
  -9 -27  -1    4.10    1.79
  -9 -27  -2    0.79    1.17
  -9 -27  -3   -0.22    2.14
  -9 -27  -4    4.05    3.10
  -9 -27  -5    8.97    3.80
  -9 -29   3    2.48    2.27
  -9 -29   2    2.29    2.83
  -9 -29   2    0.63    2.50
  -9 -29   2    2.53    2.16
  -9 -29   1    6.43    2.33
  -9 -29   1    1.42    1.96
  -9 -29   1    0.28    1.59
  -9 -29   0    1.08    1.74
  -9 -29   0    2.53    2.05
  -9 -29   0    1.22    1.74
  -9 -29  -1    5.67    2.08
  -9 -29  -1   -0.57    2.25
  -9 -29  -1    5.60    1.77
  -9 -29  -2    0.41    2.15
  10 -28  -3    8.29    3.98
 -10  28   3    8.45    3.71
  10 -28  -2    8.34    3.96
 -10  28   2    4.54    3.37
  10 -28  -1    3.20    3.61
 -10  28   1    8.24    4.15
  10 -28   0    2.68    3.06
 -10  28   0    5.42    2.82
 -10  28  -1    3.35    2.50
  10 -26  -6    3.63    3.69
 -10  26   6    0.03    3.74
 -10  26   6    2.27    3.42
  10 -26  -5    2.08    3.53
 -10  26   5   -4.85    2.89
 -10  26   5    6.32    3.22
  10 -26  -4    5.25    3.57
 -10  26   4   -1.09    2.43
 -10  26   4    5.27    3.12
  10 -26  -3    0.36    4.92
 -10  26   3    9.92    3.29
  10 -26  -2    0.85    3.30
 -10  26   2   -1.08    2.65
  10 -26  -1   -3.28    3.24
 -10  26   1   10.32    3.58
  10 -26   0    0.51    2.89
 -10  26   0    5.93    2.50
  10 -26   1    3.50    2.52
 -10  26  -1    4.68    2.38
  10 -26   2   -1.01    1.85
 -10  26  -2    2.48    3.03
 -10  26  -2   -0.75    2.70
  10 -26   3    1.73    2.03
 -10  26  -3    0.42    1.88
  10 -26   4    1.43    1.89
 -10  26  -4    3.00    1.69
  10 -24  -8    2.63    3.33
 -10  24   8    5.75    3.72
  10 -24  -7   -0.03    3.52
 -10  24   7    4.06    4.81
 -10  24   7    4.41    3.53
  10 -24  -6    7.86    3.73
 -10  24   6   14.82    4.45
 -10  24   6   -1.13    3.63
  10 -24  -5    7.23    3.82
 -10  24   5    9.90    4.88
 -10  24   5    5.19    3.54
  10 -24  -4    6.71    3.63
 -10  24   4    2.91    2.78
 -10  24   4    6.16    3.22
  10 -24  -3    6.52    3.38
 -10  24   3    3.95    3.05
  10 -24  -2    5.06    3.93
 -10  24   2   13.70    3.20
  10 -24  -1   10.09    3.94
 -10  24   1   13.56    3.31
  10 -24   0    9.30    3.21
 -10  24   0    6.28    2.73
  10 -24   1    0.22    2.56
 -10  24  -1    6.34    2.25
  10 -24   2    6.84    2.15
 -10  24  -2    5.76    2.78
  10 -24   3    5.01    2.34
 -10  24  -3    4.74    1.65
  10 -24   4    4.25    2.16
 -10  24  -4    2.05    3.65
 -10  24  -4    2.07    1.38
  10 -24   5    6.24    1.81
 -10  24  -5    4.02    3.99
 -10  24  -6    1.04    0.97
  10 -22  -9   -2.53    2.90
 -10  22   9   -0.56    3.47
  10 -22  -8    2.19    2.84
 -10  22   8    1.75    3.34
  10 -22  -7    5.34    3.22
 -10  22   7    2.54    3.38
  10 -22  -6    7.88    3.29
 -10  22   6    0.34    4.45
  10 -22  -5    7.10    3.44
 -10  22   5    9.69    4.18
 -10  22   5    4.52    3.18
  10 -22  -4    5.05    3.29
 -10  22   4    3.51    2.97
 -10  22   4    4.58    3.90
  10 -22  -3    4.02    2.98
 -10  22   3    5.57    2.47
 -10  22   3    2.10    2.82
  10 -22  -2    2.69    3.55
 -10  22   2    9.76    2.65
 -10  22   2   15.07    4.10
  10 -22  -1    6.27    3.47
 -10  22   1   10.69    2.85
  10 -22   0    7.50    3.06
 -10  22   0   11.13    3.50
  10 -22   1    5.86    2.48
 -10  22  -1    3.50    2.08
  10 -22   2    4.18    2.09
 -10  22  -2    3.86    2.37
  10 -22   3    4.04    2.31
 -10  22  -3    3.03    1.41
  10 -22   4    1.77    2.28
 -10  22  -4    2.46    1.44
  10 -22   5    0.08    1.90
 -10  22  -5    6.42    4.54
 -10  22  -5    1.60    1.01
 -10  22  -6    1.28    3.96
 -10  22  -6    3.08    1.73
 -10  22  -7    2.82    2.07
  10 -20 -10   -1.58    2.75
 -10  20  10    0.15    3.33
  10 -20  -9   -3.71    2.59
 -10  20   9    7.05    3.16
  10 -20  -8   -0.39    2.51
 -10  20   8    2.98    3.04
  10 -20  -7    5.43    3.08
 -10  20   7    5.48    3.32
  10 -20  -6    3.13    2.92
 -10  20   6    4.64    2.98
  10 -20  -5    0.04    2.91
 -10  20   5    6.12    2.78
  10 -20  -4    6.26    3.01
 -10  20   4    4.46    3.63
 -10  20   4    3.41    2.91
  10 -20  -3    9.65    2.97
 -10  20   3    5.85    2.88
 -10  20   3    4.55    2.91
  10 -20  -2   -0.63    3.00
 -10  20   2    7.18    2.64
  10 -20  -1    4.74    3.02
 -10  20   1    7.77    2.59
  10 -20   0    9.44    3.07
 -10  20   0   14.97    3.53
 -10  20  -1    6.90    2.11
  10 -20   2    3.91    2.11
 -10  20  -2    6.50    1.75
  10 -20   3    1.52    2.35
 -10  20  -3    4.15    1.43
  10 -20   4    3.65    1.86
 -10  20  -4    4.33    1.34
 -10  20  -5    4.49    3.33
 -10  20  -5    3.19    1.81
 -10  20  -6   -0.01    3.61
 -10  20  -6    2.09    1.49
 -10  20  -7   12.48    3.64
 -10  20  -7   -0.20    2.03
 -10  20  -8   -0.09    3.52
 -10  20  -8   -1.40    2.02
  10 -18 -11    6.11    2.97
 -10  18  11    0.57    3.55
  10 -18 -10    1.40    2.57
 -10  18  10    1.45    3.21
  10 -18  -9    4.30    2.48
 -10  18   9    0.53    3.17
  10 -18  -8    1.90    2.38
 -10  18   8    3.48    3.06
  10 -18  -7    4.49    2.67
 -10  18   7    1.61    3.02
  10 -18  -6   -0.25    2.52
 -10  18   6   -2.23    2.69
  10 -18  -5    3.09    2.70
 -10  18   5    3.20    2.81
  10 -18  -4    4.67    2.67
 -10  18   4    2.34    2.69
  10 -18  -3   15.63    4.33
 -10  18   3   13.32    4.41
  10 -18  -2    2.29    2.75
 -10  18   2    5.20    2.60
 -10  18   2    2.66    2.50
  10 -18  -1    7.72    3.32
 -10  18   1   22.64    3.13
 -10  18   1   12.75    2.90
  10 -18   0    2.01    2.45
 -10  18   0    4.77    2.88
  10 -18   1    1.93    2.08
 -10  18  -1    4.43    1.90
  10 -18   2    0.94    1.93
 -10  18  -2    2.25    1.60
  10 -18   3    3.44    2.37
 -10  18  -3    2.63    1.93
  10 -18   4    3.62    1.70
 -10  18  -4    1.51    2.96
 -10  18  -4    0.51    1.30
  10 -18   5    3.58    2.19
 -10  18  -5   -2.91    2.96
 -10  18  -5    1.19    1.84
 -10  18  -6    1.12    2.98
 -10  18  -6    2.54    1.65
 -10  18  -7    4.07    3.28
 -10  18  -7    1.02    2.37
 -10  18  -8    0.70    3.16
 -10  18  -9   -0.40    2.48
  10 -16 -11   -3.71    2.58
 -10  16  11    4.54    3.16
  10 -16 -10   -5.32    2.46
 -10  16  10    1.44    3.10
  10 -16  -9    0.21    2.32
 -10  16   9    3.00    2.95
 -10  16   9    2.25    2.98
  10 -16  -8    5.72    2.30
 -10  16   8   -0.25    3.02
  10 -16  -7    4.34    2.37
 -10  16   7   -0.56    2.78
  10 -16  -6    3.24    2.45
 -10  16   6    3.71    2.82
  10 -16  -5    2.85    2.66
 -10  16   5   11.03    2.92
  10 -16  -4   11.32    2.82
 -10  16   4    6.80    2.94
  10 -16  -3    8.01    2.64
 -10  16   3    7.71    2.82
  10 -16  -2    8.47    3.01
 -10  16   2   13.92    2.88
  10 -16  -1   17.82    3.61
 -10  16   1   27.56    3.72
 -10  16   1   24.95    3.50
  10 -16   0   15.41    3.17
 -10  16   0   20.60    2.91
  10 -16   1   13.35    2.50
 -10  16  -1   12.48    2.24
  10 -16   2    9.44    3.26
 -10  16  -2   12.65    1.97
  10 -16   3    9.18    2.12
 -10  16  -3   11.02    2.22
  10 -16   4   10.36    2.14
 -10  16  -4    9.62    3.33
 -10  16  -4    8.12    1.88
  10 -16   5    6.42    2.66
 -10  16  -5   10.11    3.13
 -10  16  -5    6.50    1.94
 -10  16  -6    0.23    2.75
 -10  16  -6    3.14    2.47
 -10  16  -7    2.66    3.14
 -10  16  -7    4.95    2.07
 -10  16  -8    1.89    2.94
 -10  16  -8    3.07    2.56
 -10  16  -9    3.00    2.58
 -10  16  -9    2.65    2.61
  10 -14 -12    0.42    2.84
 -10  14  12    4.84    3.38
  10 -14 -11    3.42    2.49
 -10  14  11   -2.97    3.04
  10 -14 -10   -2.92    2.35
 -10  14  10   -0.54    3.01
  10 -14  -9    0.22    2.09
 -10  14   9    0.45    2.78
  10 -14  -8    2.76    2.33
 -10  14   8    3.68    2.85
  10 -14  -7    5.63    2.31
 -10  14   7    1.66    2.72
  10 -14  -6    2.78    2.22
 -10  14   6    1.54    2.61
  10 -14  -5    6.40    2.45
 -10  14   5    6.87    2.78
  10 -14  -4    0.17    2.04
 -10  14   4   -3.83    2.35
  10 -14  -3    2.30    2.07
 -10  14   3    3.02    2.33
  10 -14  -2    1.00    2.23
 -10  14   2    4.94    2.24
  10 -14  -1   -2.02    2.23
 -10  14   1   -1.01    2.96
  10 -14   0    3.49    2.01
 -10  14   0   -1.49    2.24
 -10  14   0    0.69    1.79
  10 -14   1    1.29    1.85
 -10  14  -1    3.94    2.35
 -10  14  -1    2.07    1.54
  10 -14   2    1.40    1.94
 -10  14  -2    7.92    2.80
 -10  14  -2    2.46    1.46
  10 -14   3   -0.47    1.86
 -10  14  -3    5.65    2.27
 -10  14  -3    0.19    1.53
 -10  14  -4   -1.03    2.44
 -10  14  -4    1.09    1.64
  10 -14   5    1.04    1.74
 -10  14  -5   -0.18    1.79
 -10  14  -6   -3.37    3.36
 -10  14  -6   -1.20    2.50
 -10  14  -7    4.02    3.70
 -10  14  -7    2.68    2.10
 -10  14  -8    3.29    2.56
 -10  14  -8    2.52    2.86
 -10  14  -9    0.95    2.14
 -10  14  -9   -2.73    2.09
 -10  14 -10    1.48    2.75
 -10  14 -10   -0.13    2.11
  10 -12 -12    0.50    2.65
 -10  12  12   -2.06    3.13
  10 -12 -11    1.42    2.36
 -10  12  11   -2.17    2.91
  10 -12 -10    2.80    2.28
 -10  12  10    2.30    2.95
  10 -12  -9    2.44    2.11
 -10  12   9    3.00    2.80
  10 -12  -8    4.16    2.31
 -10  12   8    5.10    2.74
  10 -12  -7    5.57    2.48
 -10  12   7   13.35    3.06
  10 -12  -6    7.74    2.30
 -10  12   6    4.44    2.80
  10 -12  -5    4.37    2.26
 -10  12   5    6.65    2.59
  10 -12  -4    2.91    1.92
 -10  12   4    0.31    2.32
  10 -12  -3    8.82    2.41
 -10  12   3    9.57    2.66
  10 -12  -2   17.24    2.88
 -10  12   2   17.95    4.03
  10 -12  -1   35.94    3.80
 -10  12   1   33.45    3.65
  10 -12   0   27.09    3.18
 -10  12   0   24.36    3.82
 -10  12   0   21.81    2.66
  10 -12   1   14.90    2.48
 -10  12  -1   12.87    2.76
 -10  12  -1   12.68    2.14
  10 -12   2    8.09    2.05
 -10  12  -2   12.71    2.61
 -10  12  -2    8.93    1.94
  10 -12   4    7.93    2.16
 -10  12  -4    9.47    2.70
 -10  12  -5   12.28    2.78
 -10  12  -5    8.45    2.41
 -10  12  -6    8.93    3.55
 -10  12  -6    9.15    2.42
 -10  12  -7    6.57    3.53
 -10  12  -7    6.18    2.32
 -10  12  -8    0.68    2.30
 -10  12  -8    7.77    2.88
 -10  12  -9    0.36    1.77
 -10  12  -9    0.71    2.00
 -10  12 -10    2.24    2.84
 -10  12 -10   -1.36    2.72
  10 -10 -13   -0.66    2.86
 -10  10  13    1.89    3.31
  10 -10 -12    3.47    2.85
 -10  10  12    5.57    3.36
  10 -10 -11    1.79    2.38
 -10  10  11   -1.00    2.89
  10 -10 -10   -0.62    2.18
 -10  10  10   -1.41    2.78
  10 -10  -9   -0.43    2.23
 -10  10   9   -2.88    2.60
  10 -10  -8    1.52    2.19
 -10  10   8    6.31    2.72
  10 -10  -7    0.08    2.14
 -10  10   7    5.38    2.55
  10 -10  -6    4.23    2.11
 -10  10   6    5.39    2.58
  10 -10  -5   -1.14    2.02
 -10  10   5    6.51    2.28
  10 -10  -4    3.33    1.86
 -10  10   4    3.77    2.28
  10 -10  -3    5.15    2.10
 -10  10   3    6.27    2.35
  10 -10  -2    8.71    2.18
 -10  10   2    7.03    2.31
  10 -10  -1   10.84    2.35
 -10  10   1   10.31    2.10
  10 -10   0   14.05    2.34
 -10  10   0   13.36    2.28
  10 -10   1   11.56    3.02
 -10  10  -1    6.00    2.51
 -10  10  -1   11.13    1.99
  10 -10   2    4.23    1.84
 -10  10  -2    3.56    2.13
 -10  10  -2    4.95    1.78
  10 -10   3    4.84    2.09
 -10  10  -3    4.80    1.75
 -10  10  -4    9.67    2.39
 -10  10  -5    7.65    2.29
 -10  10  -6    5.12    2.10
 -10  10  -6    3.18    2.16
 -10  10  -7    0.57    2.84
 -10  10  -7    3.60    2.09
 -10  10  -8    1.35    1.81
 -10  10  -8    2.12    1.99
 -10  10  -9    1.05    1.21
 -10  10  -9   -1.02    1.78
 -10  10 -10    4.21    3.22
 -10  10 -10    3.31    2.63
 -10  10 -11    0.89    2.25
 -10  10 -11    0.00    2.54
  10  -8 -13    4.26    3.03
 -10   8  13    3.25    3.45
  10  -8 -12    0.26    2.66
 -10   8  12    3.27    3.05
  10  -8 -11   -1.46    2.40
 -10   8  11    0.62    2.77
  10  -8 -10    3.87    2.51
 -10   8  10    4.18    2.83
  10  -8  -9    1.90    2.21
 -10   8   9   -4.28    2.43
  10  -8  -8   -0.41    2.08
 -10   8   8    2.02    2.47
  10  -8  -7   -1.00    2.00
 -10   8   7    0.80    2.33
  10  -8  -6    1.07    1.93
 -10   8   6   -3.50    2.26
  10  -8  -5   -1.68    1.80
 -10   8   5   -3.86    2.27
  10  -8  -4    0.32    1.66
 -10   8   4   -2.78    2.10
  10  -8  -3    1.12    1.76
 -10   8   3    1.54    2.00
  10  -8  -2    0.00    1.70
 -10   8   2    0.62    1.67
  10  -8  -1    1.50    1.78
 -10   8   1   -0.81    1.70
  10  -8   0   -0.80    1.67
 -10   8   0    0.86    1.60
  10  -8   1    4.17    1.90
 -10   8  -1    1.99    1.71
  10  -8   2    1.54    1.84
 -10   8  -2   -0.77    1.77
 -10   8  -2    1.11    1.54
  10  -8   3   -1.02    2.47
 -10   8  -3    1.21    2.04
 -10   8  -3    2.50    1.79
  10  -8   4   -0.32    1.89
 -10   8  -4    0.29    2.32
 -10   8  -4   -4.01    2.54
 -10   8  -5    3.03    1.85
 -10   8  -5    0.97    1.98
 -10   8  -6   -2.30    2.02
 -10   8  -7    0.83    1.67
 -10   8  -7    0.17    1.80
 -10   8  -8    1.83    1.20
 -10   8  -8   -1.30    1.78
 -10   8  -9   -0.39    1.83
 -10   8 -10   -0.63    2.26
 -10   8 -10    0.08    1.92
 -10   8 -11   -1.49    2.33
 -10   8 -11    3.44    2.74
  10  -6 -13    3.52    3.24
 -10   6  13    1.19    4.40
  10  -6 -12   -3.04    2.85
 -10   6  12    2.66    2.87
  10  -6 -11    5.46    2.90
 -10   6  11    4.69    3.08
  10  -6 -10    2.20    2.51
 -10   6  10    3.68    2.62
  10  -6  -9    1.57    2.45
 -10   6   9    5.96    2.55
  10  -6  -8    7.05    2.49
 -10   6   8    6.42    2.76
  10  -6  -7    8.28    2.49
 -10   6   7    8.87    2.79
  10  -6  -6    6.01    2.28
 -10   6   6   12.77    2.71
  10  -6  -5    5.31    2.03
 -10   6   5    7.65    2.46
  10  -6  -4   21.12    2.70
 -10   6   4   15.79    3.09
  10  -6  -3   48.68    4.14
 -10   6   3   49.98    4.71
  10  -6  -2   65.28    5.07
 -10   6   2   66.21    4.98
  10  -6  -1   83.87    5.99
 -10   6   1   87.40    6.17
  10  -6   0   78.39    5.94
 -10   6   0   79.54    5.65
  10  -6   1   52.86    4.30
 -10   6  -1   54.80    4.07
  10  -6   2   41.25    3.85
 -10   6  -2   32.83    3.65
 -10   6  -2   37.69    3.58
  10  -6   3   20.63    2.98
 -10   6  -3   20.05    2.54
 -10   6  -3   22.31    2.89
  10  -6   4   14.24    2.77
 -10   6  -4   19.69    2.14
 -10   6  -4    9.12    3.70
 -10   6  -5   18.98    2.30
 -10   6  -5   12.41    2.65
 -10   6  -6    2.58    2.02
 -10   6  -7    4.30    1.45
 -10   6  -7   -1.34    2.00
 -10   6  -8    4.11    1.72
 -10   6  -8    4.41    2.75
 -10   6  -9    1.26    1.07
 -10   6  -9    1.97    1.94
 -10   6 -10    3.50    2.38
 -10   6 -10    1.25    1.89
 -10   6 -11    0.65    2.58
 -10   6 -11    5.67    2.16
 -10   6 -12    4.18    3.23
  10  -4 -13    3.33    3.15
 -10   4  13    0.63    4.22
  10  -4 -12   -0.47    3.81
 -10   4  12    0.34    2.77
  10  -4 -11    3.82    2.86
 -10   4  11    4.37    2.91
  10  -4 -10    2.57    2.55
 -10   4  10    2.44    2.49
  10  -4  -9   -1.43    2.32
 -10   4   9   -1.00    2.40
  10  -4  -8    5.75    3.23
 -10   4   8    2.57    2.46
  10  -4  -7    2.73    2.11
 -10   4   7    3.63    2.34
  10  -4  -6    8.68    2.14
 -10   4   6    3.83    2.48
  10  -4  -5    4.79    2.00
 -10   4   5    2.90    2.27
  10  -4  -4   16.83    2.46
 -10   4   4   13.31    2.73
  10  -4  -3   36.14    3.35
 -10   4   3   32.82    3.31
  10  -4  -2   49.96    4.23
 -10   4   2   49.08    4.30
  10  -4  -1   60.47    4.81
 -10   4   1   63.31    4.88
  10  -4   0   56.02    4.41
 -10   4   0   57.13    4.21
  10  -4   1   56.26    4.74
 -10   4  -1   52.95    4.44
  10  -4   2   33.04    3.49
 -10   4  -2   34.33    3.52
  10  -4   3   10.09    2.51
 -10   4  -3   14.84    1.94
 -10   4  -3   14.59    2.56
 -10   4  -4   15.03    2.15
 -10   4  -4    8.42    2.34
 -10   4  -5   11.41    2.24
 -10   4  -5    8.65    2.39
 -10   4  -6    4.87    2.13
 -10   4  -7    2.70    1.41
 -10   4  -7    4.07    1.86
 -10   4  -8    0.26    0.99
 -10   4  -8    3.20    2.35
 -10   4  -9   -1.82    1.90
 -10   4  -9   -0.39    1.84
 -10   4 -10    4.15    2.32
 -10   4 -10    0.78    2.06
 -10   4 -11    2.16    2.41
 -10   4 -11    1.21    2.43
 -10   4 -12    3.45    2.74
 -10   4 -12    4.48    2.88
  10  -2 -13    0.26    3.09
 -10   2  13    3.56    3.00
  10  -2 -12    1.26    2.87
 -10   2  12   -0.30    3.63
  10  -2 -11    2.44    2.80
 -10   2  11    4.95    3.66
  10  -2 -10    0.46    2.53
 -10   2  10    5.23    3.25
  10  -2  -9    1.48    2.45
 -10   2   9    2.93    3.19
  10  -2  -8    3.86    2.26
 -10   2   8    4.98    3.19
  10  -2  -7    2.90    2.71
 -10   2   7   -1.17    2.85
  10  -2  -6    3.37    1.97
 -10   2   6    0.02    2.04
  10  -2  -5    3.08    1.80
 -10   2   5   -0.59    1.97
  10  -2  -4    1.98    1.79
 -10   2   4    4.67    1.82
  10  -2  -3    2.38    1.86
 -10   2   3    3.89    1.99
  10  -2  -2   13.43    2.27
 -10   2   2   11.74    2.31
  10  -2  -1   27.24    3.07
  10  -2   0   18.71    2.61
 -10   2   0   23.23    2.68
  10  -2   1   10.27    2.37
 -10   2  -1   11.44    2.25
  10  -2   2   10.24    2.09
 -10   2  -2    1.79    2.09
  10  -2   3    4.84    1.92
 -10   2  -3    2.22    1.83
 -10   2  -3    0.08    1.82
 -10   2  -4    2.15    1.97
 -10   2  -4    2.91    1.93
 -10   2  -5    5.01    1.59
 -10   2  -5    2.71    2.07
 -10   2  -6   -4.99    1.94
 -10   2  -7   -0.99    1.21
 -10   2  -7   -4.67    1.84
 -10   2  -8    0.34    1.96
 -10   2  -9    6.11    3.22
 -10   2  -9    7.32    3.23
 -10   2 -10    5.77    2.74
 -10   2 -10    1.48    2.54
 -10   2 -11    3.67    2.52
 -10   2 -11    2.56    2.89
 -10   2 -12    3.85    2.72
 -10   2 -12    0.17    3.21
  10   0 -13    3.60    3.08
 -10   0  13    1.99    2.92
  10   0 -12    7.27    4.26
 -10   0  12    5.22    3.93
  10   0 -11    5.72    2.89
 -10   0  11    4.05    2.74
  10   0 -10    1.11    2.59
 -10   0  10    3.47    2.30
  10   0  -9    6.57    2.63
 -10   0   9   10.07    2.64
  10   0  -8    7.39    2.64
 -10   0   8    9.66    2.53
  10   0  -7   10.11    2.64
 -10   0   7    8.79    2.51
  10   0  -6   12.89    2.46
 -10   0   6    9.66    2.52
  10   0  -5   10.24    2.16
 -10   0   5   11.37    2.31
  10   0  -4    9.67    2.14
 -10   0   4    9.74    2.06
  10   0  -3   32.83    3.24
 -10   0   3   37.10    3.49
  10   0  -2   47.09    4.07
 -10   0   2   47.85    3.85
  10   0  -1   51.22    4.09
 -10   0   1   57.10    4.41
  10   0   0   49.69    4.29
  10   0   1   39.84    3.62
 -10   0  -1   37.26    3.72
  10   0   2   23.14    2.78
 -10   0  -2   17.57    2.62
 -10   0  -3    7.37    1.46
 -10   0  -3   -0.46    2.04
 -10   0  -4   18.27    2.07
 -10   0  -4    4.12    2.21
 -10   0  -5   12.83    1.58
 -10   0  -5    9.85    2.35
 -10   0  -6    8.54    1.16
 -10   0  -6    5.41    2.34
 -10   0  -7    7.29    3.18
 -10   0  -8    2.35    1.51
 -10   0  -8    2.89    2.23
 -10   0  -9    4.38    2.34
 -10   0  -9    0.88    2.30
 -10   0 -10    0.69    2.21
 -10   0 -10    2.71    2.58
 -10   0 -11    0.47    2.91
 -10   0 -12    4.03    2.81
 -10   0 -12    2.58    3.44
  10   2 -13    1.21    3.01
 -10  -2  13    6.33    3.69
  10   2 -12    3.52    2.60
 -10  -2  12   -0.31    3.44
  10   2 -11    3.31    2.46
 -10  -2  11   -0.09    2.38
  10   2 -10    1.66    3.10
 -10  -2  10    0.53    2.08
  10   2  -9    4.74    2.33
 -10  -2   9    2.51    2.19
  10   2  -8    1.53    3.01
 -10  -2   8    1.17    1.97
  10   2  -7    0.39    2.00
 -10  -2   7    1.58    1.91
  10   2  -6    5.52    1.91
 -10  -2   6    2.01    2.71
  10   2  -5    3.50    1.81
 -10  -2   5    2.88    1.87
  10   2  -4    7.44    1.82
 -10  -2   4    4.71    1.97
  10   2  -3    8.53    2.06
 -10  -2   3    7.73    2.09
  10   2  -2   14.87    2.15
 -10  -2   2   13.35    2.21
  10   2  -1   30.42    3.04
 -10  -2   1   25.43    3.10
  10   2   0   22.77    2.68
 -10  -2   0   25.55    2.92
  10   2   1    6.84    2.05
 -10  -2  -1    8.04    2.00
 -10  -2  -2    2.13    1.89
 -10  -2  -3    2.89    1.73
 -10  -2  -4    0.51    1.24
 -10  -2  -4    0.35    1.68
 -10  -2  -5    1.09    0.82
 -10  -2  -5   -0.76    1.87
 -10  -2  -6    1.31    0.72
 -10  -2  -6   -0.20    1.91
 -10  -2  -7    2.10    2.00
 -10  -2  -8    2.79    2.63
 -10  -2  -8    4.40    2.27
 -10  -2  -9   -0.31    2.42
 -10  -2  -9   -3.89    2.49
 -10  -2 -10    2.64    2.39
 -10  -2 -10    0.86    2.91
 -10  -2 -11    3.58    2.27
 -10  -2 -11    1.99    3.44
 -10  -2 -12    1.07    2.62
 -10  -2 -12   -0.54    3.59
  10   4 -13    6.05    3.72
 -10  -4  13    2.83    3.56
  10   4 -12    5.05    2.64
 -10  -4  12    1.93    3.34
  10   4 -11    1.26    2.38
 -10  -4  11    1.19    2.27
  10   4 -10    0.65    2.37
 -10  -4  10    1.17    1.98
  10   4  -9    2.67    2.27
 -10  -4   9   -0.05    1.96
  10   4  -8    2.95    2.14
 -10  -4   8    1.82    2.61
  10   4  -7    4.66    2.06
 -10  -4   7    7.76    2.77
  10   4  -6   11.68    3.02
 -10  -4   6   12.19    2.30
  10   4  -5   13.79    2.09
 -10  -4   5    9.33    2.72
  10   4  -4   21.65    2.51
 -10  -4   4   17.63    2.58
  10   4  -3   36.39    3.08
 -10  -4   3   37.44    3.32
  10   4  -2   52.60    4.09
  10   4  -1   63.01    4.59
 -10  -4   1   68.96    5.08
  10   4   0   56.60    4.57
 -10  -4   0   67.94    4.92
  10   4   1   46.79    3.95
 -10  -4  -1   47.61    4.01
 -10  -4  -2   26.44    3.14
 -10  -4  -3    4.48    1.83
 -10  -4  -4    6.22    1.40
 -10  -4  -4    5.09    2.02
 -10  -4  -5    3.37    0.62
 -10  -4  -5    1.38    1.98
 -10  -4  -6    2.52    1.97
 -10  -4  -7    2.30    1.63
 -10  -4  -7    0.75    2.04
 -10  -4  -8   -0.39    2.53
 -10  -4  -8    0.10    2.22
 -10  -4  -9    1.15    2.72
 -10  -4 -10    5.12    2.55
 -10  -4 -10   -1.77    3.37
 -10  -4 -11    4.04    2.67
 -10  -4 -11    6.00    4.00
 -10  -4 -12    3.72    2.56
 -10  -4 -12    7.21    4.41
  10   6 -13    7.21    3.65
 -10  -6  13    0.46    3.24
  10   6 -12    9.23    3.68
 -10  -6  12    2.33    3.19
  10   6 -11    5.52    2.50
 -10  -6  11    1.05    2.21
  10   6 -10   -0.08    2.21
 -10  -6  10    1.22    1.86
  10   6  -9    3.98    2.93
 -10  -6   9    4.62    2.01
  10   6  -8    6.22    2.19
 -10  -6   8    7.64    2.74
  10   6  -7   15.43    2.46
 -10  -6   7   15.67    2.43
  10   6  -6   18.50    3.19
 -10  -6   6   19.45    3.29
  10   6  -5   17.30    3.10
 -10  -6   5   18.15    2.25
  10   6  -4   21.60    2.21
 -10  -6   4   19.96    2.62
  10   6  -3   47.00    3.56
 -10  -6   3   45.56    3.70
  10   6  -2   61.64    4.33
 -10  -6   2   72.19    5.09
  10   6  -1   79.15    5.34
  10   6   0   69.02    5.01
 -10  -6   0   72.27    5.12
 -10  -6  -1   53.38    4.52
 -10  -6  -2   26.30    2.77
 -10  -6  -3    1.62    1.79
 -10  -6  -4   12.78    1.14
 -10  -6  -4    8.57    2.29
 -10  -6  -5    5.61    1.92
 -10  -6  -6    7.79    1.79
 -10  -6  -6    0.69    2.01
 -10  -6  -7    5.19    2.96
 -10  -6  -7    4.55    2.29
 -10  -6  -8    2.02    2.82
 -10  -6  -8    4.67    3.08
 -10  -6  -9    4.43    2.79
 -10  -6  -9    0.21    3.29
 -10  -6 -10    3.29    3.50
 -10  -6 -11   -2.41    2.66
 -10  -6 -11    2.31    3.47
 -10  -6 -12    3.27    2.79
 -10  -6 -12    4.98    3.97
  10   8 -13    7.85    3.26
 -10  -8  13    0.56    2.14
  10   8 -12    0.25    3.03
 -10  -8  12    2.54    2.69
  10   8 -11    0.49    2.01
 -10  -8  11   -0.07    2.59
  10   8 -10   -2.12    2.54
 -10  -8  10   -0.79    1.74
  10   8  -9    2.46    1.72
 -10  -8   9   -0.71    2.29
  10   8  -8    2.98    2.18
 -10  -8   8    2.79    1.67
  10   8  -7    2.06    1.52
 -10  -8   7    1.19    1.59
  10   8  -6    1.06    1.42
 -10  -8   6    0.50    1.52
  10   8  -5    1.74    1.69
 -10  -8   5   -0.77    2.11
 -10  -8   4   -0.47    1.60
  10   8  -3    1.85    1.75
 -10  -8   3   -0.79    2.19
  10   8  -2   -0.97    1.38
 -10  -8   2    2.93    1.56
  10   8  -1   -0.20    1.40
 -10  -8   1   -0.30    1.48
 -10  -8   0   -2.70    1.63
 -10  -8  -1   -0.52    1.39
 -10  -8  -2    0.33    1.49
 -10  -8  -3    2.45    1.53
 -10  -8  -4    3.68    1.48
 -10  -8  -5   -1.91    2.31
 -10  -8  -6   -1.65    2.65
 -10  -8  -6    5.81    2.69
 -10  -8  -7   -0.34    2.73
 -10  -8  -7    0.45    2.81
 -10  -8  -8   -1.57    2.82
 -10  -8  -8    6.23    3.14
 -10  -8  -9    4.73    2.85
 -10  -8  -9    0.51    3.34
 -10  -8 -10    6.55    3.14
 -10  -8 -10    4.01    3.84
 -10  -8 -11    4.26    3.08
 -10  -8 -11    2.12    3.84
  10  10 -12    0.81    1.75
 -10 -10  12   -1.04    1.76
  10  10 -11    2.30    1.53
 -10 -10  11   -2.52    2.45
  10  10 -10   -0.44    1.77
 -10 -10  10    0.69    1.57
  10  10  -9    1.83    1.32
 -10 -10   9    1.82    2.16
  10  10  -8    3.71    1.75
 -10 -10   8    2.90    1.59
  10  10  -7    5.15    1.63
 -10 -10   7    4.80    2.20
  10  10  -6    3.58    1.29
 -10 -10   6    4.62    1.48
  10  10  -5    5.91    1.39
 -10 -10   5    7.64    1.71
  10  10  -4    2.20    1.26
 -10 -10   4    4.79    2.04
 -10 -10   3    6.70    1.82
 -10 -10   2    6.71    1.78
 -10 -10   1   11.03    1.87
 -10 -10   0    6.16    1.72
 -10 -10  -1    2.27    1.38
 -10 -10  -2    2.97    1.93
 -10 -10  -3    0.09    1.80
 -10 -10  -4    0.94    2.11
 -10 -10  -5    0.00    1.61
 -10 -10  -5    4.68    2.59
 -10 -10  -6    5.85    2.93
 -10 -10  -6    2.21    3.00
 -10 -10  -7    5.09    3.16
 -10 -10  -7    5.35    3.30
 -10 -10  -8    2.04    2.91
 -10 -10  -8    4.24    3.37
 -10 -10  -9   -1.17    2.80
 -10 -10  -9    1.40    3.27
 -10 -10 -10    3.25    3.22
 -10 -10 -10    4.51    3.79
 -10 -10 -11    3.47    3.25
 -10 -10 -11    3.17    3.93
  10  12 -12    2.78    0.87
 -10 -12  12    0.60    2.23
  10  12 -11    0.19    1.00
 -10 -12  11    2.87    2.22
  10  12 -10    1.40    0.88
 -10 -12  10    1.02    2.03
  10  12  -9    1.64    1.21
 -10 -12   9    0.95    1.96
  10  12  -8    4.60    1.18
  10  12  -7    6.18    1.79
 -10 -12   7    7.85    2.14
  10  12  -6    8.77    1.87
 -10 -12   6    7.64    2.04
  10  12  -5    7.95    2.00
 -10 -12   5    8.09    1.72
  10  12  -4    6.12    1.53
 -10 -12   4    6.04    1.58
 -10 -12   3   11.44    2.57
 -10 -12   2   15.16    2.06
 -10 -12   1   25.95    2.50
 -10 -12   0   16.88    1.84
 -10 -12  -1    7.05    1.92
 -10 -12  -2    3.35    0.80
 -10 -12  -2    0.51    1.98
 -10 -12  -3    2.45    0.50
 -10 -12  -3    1.31    2.11
 -10 -12  -4    3.51    1.62
 -10 -12  -4    3.14    2.50
 -10 -12  -5    8.88    3.16
 -10 -12  -5    6.62    3.09
 -10 -12  -6    4.38    3.15
 -10 -12  -6    7.86    3.23
 -10 -12  -7    0.35    2.91
 -10 -12  -7    1.20    3.11
 -10 -12  -8    4.79    2.97
 -10 -12  -8   -1.60    3.34
 -10 -12  -9    3.89    3.27
 -10 -12 -10    2.34    3.30
 -10 -12 -11    3.76    3.49
  10  14 -12    1.25    1.69
 -10 -14  12    3.60    1.93
  10  14 -11    2.09    1.72
 -10 -14  11    1.76    1.86
  10  14 -10    0.85    1.65
 -10 -14  10    0.82    1.79
  10  14  -9    2.26    1.59
 -10 -14   9    0.26    1.76
  10  14  -8    0.03    1.60
  10  14  -7    0.75    1.76
 -10 -14   7    1.86    1.69
  10  14  -6    2.15    1.37
 -10 -14   6    1.85    1.63
 -10 -14   5    3.08    1.89
 -10 -14   4    2.42    1.47
 -10 -14   3    0.75    1.37
 -10 -14   2    1.75    1.29
 -10 -14   1    0.57    1.64
 -10 -14   0    1.34    0.92
 -10 -14   0    0.54    1.90
 -10 -14  -1   -1.81    1.08
 -10 -14  -1    6.76    2.27
 -10 -14  -2    0.34    0.88
 -10 -14  -2   -2.30    1.82
 -10 -14  -3   -0.64    0.62
 -10 -14  -3    0.48    2.32
 -10 -14  -3   -1.31    2.05
 -10 -14  -4    6.83    2.77
 -10 -14  -4    1.81    2.59
 -10 -14  -5    3.37    2.88
 -10 -14  -5    5.50    2.92
 -10 -14  -6    5.80    3.13
 -10 -14  -6    2.92    3.17
 -10 -14  -7    4.75    3.13
 -10 -14  -7    4.35    3.42
 -10 -14  -8   -0.85    3.07
 -10 -14  -9    0.76    3.15
 -10 -14 -10    3.59    3.52
  10  16 -11    2.49    1.67
 -10 -16  11    5.36    3.50
 -10 -16  11    1.69    1.68
  10  16 -10    0.36    1.60
 -10 -16  10   -1.68    3.10
 -10 -16  10    0.86    1.59
 -10 -16   9    1.10    1.61
 -10 -16   8    0.79    1.52
 -10 -16   7    5.96    1.73
 -10 -16   6    7.17    1.71
 -10 -16   5    6.40    1.99
 -10 -16   4    5.69    2.02
 -10 -16   3    5.34    1.48
 -10 -16   3    4.35    1.46
 -10 -16   2    6.58    1.51
 -10 -16   2    8.20    1.79
 -10 -16   1    4.40    1.96
 -10 -16   1   16.85    1.98
 -10 -16   0    7.38    1.82
 -10 -16   0   12.95    1.94
 -10 -16  -1    4.49    1.42
 -10 -16  -1    4.52    1.44
 -10 -16  -1    3.18    2.02
 -10 -16  -2    4.06    0.95
 -10 -16  -2    8.64    2.60
 -10 -16  -2    6.72    2.89
 -10 -16  -3    3.86    0.81
 -10 -16  -3    5.55    2.68
 -10 -16  -3    8.45    2.49
 -10 -16  -4    3.93    2.83
 -10 -16  -4    5.05    2.76
 -10 -16  -5    3.95    2.94
 -10 -16  -5    2.64    2.98
 -10 -16  -6    4.75    3.00
 -10 -16  -6    3.11    3.21
 -10 -16  -7    9.39    3.57
 -10 -16  -8    8.46    3.69
 -10 -16  -9    2.00    3.43
 -10 -16 -10    3.11    3.65
 -10 -18  10   -6.91    3.72
 -10 -18  10    2.86    1.45
 -10 -18   9   -1.33    3.33
 -10 -18   9    1.32    1.39
 -10 -18   8    0.20    2.99
 -10 -18   8    0.58    1.33
 -10 -18   7   -0.92    2.75
 -10 -18   7    1.00    1.33
 -10 -18   6    0.02    2.40
 -10 -18   6    1.21    1.34
 -10 -18   5    1.74    2.08
 -10 -18   5    1.02    1.59
 -10 -18   4    1.51    2.44
 -10 -18   4   -0.90    1.57
 -10 -18   3    4.46    1.70
 -10 -18   3    1.83    1.56
 -10 -18   2   14.99    2.35
 -10 -18   2    2.32    1.54
 -10 -18   1    8.71    1.71
 -10 -18   1    6.42    1.67
 -10 -18   0    3.10    1.31
 -10 -18   0    1.25    2.03
 -10 -18   0    3.13    1.78
 -10 -18  -1    6.75    1.41
 -10 -18  -1   14.17    2.52
 -10 -18  -1    1.22    2.16
 -10 -18  -2    1.23    1.03
 -10 -18  -2    4.08    2.35
 -10 -18  -2    7.43    2.10
 -10 -18  -3    9.91    2.98
 -10 -18  -3    7.95    2.71
 -10 -18  -4    1.30    2.88
 -10 -18  -4   11.65    2.92
 -10 -18  -5    3.57    2.87
 -10 -18  -5    0.48    2.86
 -10 -18  -6    5.11    3.12
 -10 -18  -6    2.51    3.21
 -10 -18  -7    3.91    3.31
 -10 -18  -8    2.69    3.46
 -10 -18  -9    3.67    3.71
 -10 -20   9    7.03    3.74
 -10 -20   9    1.67    1.16
 -10 -20   8    2.70    3.35
 -10 -20   8    1.10    1.19
 -10 -20   7    3.09    2.88
 -10 -20   7   -0.04    1.16
 -10 -20   6    3.84    2.74
 -10 -20   6    1.64    1.22
 -10 -20   5    1.58    2.40
 -10 -20   5    1.44    1.41
 -10 -20   4    8.76    3.15
 -10 -20   4    2.10    1.48
 -10 -20   3    8.35    1.96
 -10 -20   3    0.30    0.98
 -10 -20   3    0.34    1.87
 -10 -20   2    6.19    2.45
 -10 -20   2    2.19    2.33
 -10 -20   2    2.15    1.56
 -10 -20   1    2.12    1.39
 -10 -20   1    2.72    1.88
 -10 -20   1    1.69    1.52
 -10 -20   0    1.90    1.18
 -10 -20   0    2.30    1.98
 -10 -20   0    2.71    1.81
 -10 -20  -1    3.50    1.46
 -10 -20  -1    6.79    2.97
 -10 -20  -1    1.86    1.92
 -10 -20  -2   -0.79    1.07
 -10 -20  -2    3.91    2.25
 -10 -20  -2    0.51    1.98
 -10 -20  -3    1.26    0.88
 -10 -20  -3    5.02    2.42
 -10 -20  -3    3.36    2.35
 -10 -20  -4    3.71    2.84
 -10 -20  -4    6.64    2.88
 -10 -20  -5    1.18    2.90
 -10 -20  -5    3.73    2.97
 -10 -20  -6    2.89    3.12
 -10 -20  -7    2.29    3.26
 -10 -20  -8    1.20    3.42
 -10 -22   8   -2.39    3.90
 -10 -22   7    3.61    3.37
 -10 -22   7    2.08    1.46
 -10 -22   7    0.27    1.21
 -10 -22   6    1.71    2.90
 -10 -22   6    0.72    1.61
 -10 -22   6    0.49    1.00
 -10 -22   5    4.80    2.65
 -10 -22   5    1.17    1.32
 -10 -22   5    2.19    1.22
 -10 -22   4    0.13    3.22
 -10 -22   4    2.95    1.43
 -10 -22   4    2.77    1.33
 -10 -22   3    3.85    2.18
 -10 -22   3    3.86    2.13
 -10 -22   3    5.49    2.02
 -10 -22   2    5.43    2.35
 -10 -22   2    4.07    2.27
 -10 -22   2    3.07    1.65
 -10 -22   1    2.60    1.53
 -10 -22   1    4.10    1.85
 -10 -22   1    1.64    2.16
 -10 -22   0    0.40    1.33
 -10 -22   0    2.59    1.85
 -10 -22   0    7.44    2.46
 -10 -22  -1    2.86    1.11
 -10 -22  -1    1.64    2.74
 -10 -22  -1    2.24    1.90
 -10 -22  -2    3.95    1.57
 -10 -22  -2    0.92    2.27
 -10 -22  -2    2.47    2.10
 -10 -22  -3    3.67    2.59
 -10 -22  -3    6.75    3.42
 -10 -22  -4    6.04    2.89
 -10 -22  -4    5.03    2.86
 -10 -22  -5    0.56    2.93
 -10 -22  -5    4.34    2.98
 -10 -22  -6    9.51    3.69
 -10 -22  -7    1.70    3.30
 -10 -24   7    5.69    3.81
 -10 -24   6    2.01    3.16
 -10 -24   6    2.86    1.60
 -10 -24   6    2.01    1.32
 -10 -24   5    5.56    2.53
 -10 -24   5    2.50    1.77
 -10 -24   5    1.30    1.59
 -10 -24   4    5.88    3.04
 -10 -24   4    2.02    1.88
 -10 -24   4    1.65    1.39
 -10 -24   3    5.35    2.16
 -10 -24   3    2.08    2.13
 -10 -24   3    6.20    2.12
 -10 -24   2    5.66    2.49
 -10 -24   2   -0.11    1.65
 -10 -24   2    6.06    2.30
 -10 -24   1    7.48    1.98
 -10 -24   1    9.74    2.54
 -10 -24   0    6.12    2.03
 -10 -24  -1   12.64    2.99
 -10 -24  -1    3.76    2.07
 -10 -24  -2    5.21    1.56
 -10 -24  -2    4.82    2.42
 -10 -24  -2    4.77    2.19
 -10 -24  -3    4.23    2.59
 -10 -24  -3    3.03    3.37
 -10 -24  -4    4.19    3.08
 -10 -24  -4    9.50    2.97
 -10 -24  -5    2.14    3.07
 -10 -24  -5    3.52    3.05
 -10 -24  -6    8.22    3.73
 -10 -26   5    0.21    2.62
 -10 -26   5    1.33    1.84
 -10 -26   5    2.04    1.52
 -10 -26   4    3.48    2.43
 -10 -26   4    4.79    2.10
 -10 -26   4    1.51    1.86
 -10 -26   3    3.43    2.11
 -10 -26   3    1.35    1.57
 -10 -26   3    1.06    2.03
 -10 -26   2    0.87    1.92
 -10 -26   2   -1.50    1.61
 -10 -26   2    4.96    2.18
 -10 -26   1    3.39    1.81
 -10 -26   0    4.71    1.98
 -10 -26   0    1.81    1.93
 -10 -26  -1    0.91    1.51
 -10 -26  -1    2.40    2.05
 -10 -26  -1    3.41    1.82
 -10 -26  -2    3.38    1.60
 -10 -26  -2    8.03    3.15
 -10 -26  -2    5.32    2.12
 -10 -26  -3    4.32    2.60
 -10 -26  -4    5.06    2.95
 -10 -26  -4    4.77    2.81
 -10 -28   2    1.80    2.13
 -10 -28   2    0.80    1.69
 -10 -28   1    3.13    2.39
 -10 -28   1    0.95    2.23
 -10 -28   0    6.20    2.64
 -10 -28   0    1.92    2.45
 -10 -28  -1    3.85    1.96
 -10 -28  -1    1.84    2.54
 -10 -28  -1    3.87    1.86
 -10 -28  -2    5.67    2.82
 -11  27   3    1.58    3.11
  11 -27  -2   -1.25    3.69
 -11  27   2    4.10    2.90
  11 -27  -1    6.77    3.65
 -11  27   1    5.06    4.02
  11 -27   0    2.44    4.35
 -11  27   0    5.95    2.64
 -11  27  -1    1.64    2.27
 -11  25   6   -0.09    4.52
 -11  25   6    5.52    3.56
 -11  25   6    2.45    3.58
  11 -25  -5    8.09    3.95
 -11  25   5    2.46    4.18
 -11  25   5    1.81    4.72
  11 -25  -4    8.60    4.89
 -11  25   4    1.53    3.56
 -11  25   4    5.18    3.31
  11 -25  -3    9.55    3.97
 -11  25   3    2.95    4.31
  11 -25  -2    3.27    3.53
 -11  25   2    2.60    2.81
  11 -25  -1    6.53    4.98
 -11  25   1    8.43    3.07
  11 -25   0    4.84    4.15
 -11  25   0    4.01    2.55
  11 -25   1    4.94    3.27
 -11  25  -1    3.38    2.16
  11 -25   2   -0.61    2.80
 -11  25  -2    0.74    2.12
  11 -25   3    2.24    2.41
 -11  25  -3    2.34    1.16
  11 -25   4    0.22    1.70
 -11  25  -4    3.05    1.12
  11 -23  -7    7.42    3.91
 -11  23   7    9.06    3.96
 -11  23   7    6.32    3.97
  11 -23  -6    5.64    3.71
 -11  23   6    0.69    5.17
 -11  23   6    6.11    3.58
  11 -23  -5   10.35    3.75
 -11  23   5   -4.62    4.48
 -11  23   5    8.20    3.37
  11 -23  -4    6.00    3.18
 -11  23   4   -3.84    3.50
 -11  23   4   -0.57    2.90
  11 -23  -3    1.25    3.34
 -11  23   3   -4.11    2.93
 -11  23   3    4.91    2.85
  11 -23  -2    8.59    3.89
 -11  23   2    9.48    3.28
  11 -23  -1    8.10    4.14
 -11  23   1   -1.57    2.49
  11 -23   0    7.01    4.49
 -11  23   0   11.80    3.71
  11 -23   1    5.41    3.37
 -11  23  -1    5.80    2.09
  11 -23   2    2.88    2.76
 -11  23  -2   -1.62    2.04
  11 -23   3   -2.74    2.39
 -11  23  -3    1.88    1.23
  11 -23   4   -0.44    1.77
 -11  23  -4   -0.98    1.55
  11 -23   5    2.00    1.96
 -11  23  -5    0.03    3.57
 -11  23  -5   -0.05    1.80
 -11  23  -6    6.17    1.83
  11 -21  -9    2.27    3.20
 -11  21   9    1.52    3.56
  11 -21  -8   -0.04    3.02
 -11  21   8    2.23    3.41
 -11  21   8    0.88    3.39
  11 -21  -7    3.39    3.30
  11 -21  -7    5.34    3.25
 -11  21   7    4.75    3.54
  11 -21  -6    3.82    3.24
 -11  21   6    1.28    3.22
  11 -21  -5    8.03    3.34
 -11  21   5    1.47    3.17
  11 -21  -4    0.60    2.92
 -11  21   4   -1.59    3.82
 -11  21   4    2.68    2.90
  11 -21  -3    1.62    3.29
 -11  21   3    1.14    3.30
 -11  21   3    8.57    2.98
  11 -21  -2    6.97    3.36
 -11  21   2    5.14    2.92
  11 -21  -1    1.27    3.28
 -11  21   1   11.40    2.74
  11 -21   0    7.17    4.04
 -11  21   0    6.63    3.31
  11 -21   1    0.57    3.04
 -11  21  -1    2.59    1.89
  11 -21   2   -0.40    2.92
 -11  21  -2    4.20    2.18
  11 -21   3    2.52    1.87
 -11  21  -3    1.50    1.47
  11 -21   4    2.28    1.80
 -11  21  -4    1.62    1.96
  11 -21   5    5.48    2.29
 -11  21  -5    1.63    1.66
 -11  21  -6    3.49    3.30
 -11  21  -6   -1.09    2.24
 -11  21  -7    0.22    2.35
  11 -19 -10   -3.41    3.02
 -11  19  10    0.80    3.52
  11 -19  -9    2.22    2.77
 -11  19   9   -3.25    3.32
  11 -19  -8    4.32    2.88
 -11  19   8    0.41    3.40
  11 -19  -7    1.98    2.91
  11 -19  -7    5.19    2.90
 -11  19   7    1.17    3.22
  11 -19  -6    5.50    3.06
 -11  19   6    5.30    3.22
  11 -19  -5    3.34    3.02
 -11  19   5    4.18    3.10
  11 -19  -4    3.07    3.80
 -11  19   4    3.72    2.93
  11 -19  -3   -1.38    2.82
 -11  19   3   -1.80    3.46
 -11  19   3    6.64    3.54
  11 -19  -2    1.41    2.86
 -11  19   2    4.33    2.94
 -11  19   2    2.17    2.55
  11 -19  -1    6.05    2.91
 -11  19   1    3.84    2.50
  11 -19   0    2.64    2.41
 -11  19   0   -2.86    2.03
  11 -19   1    2.05    2.92
 -11  19  -1    2.34    1.86
  11 -19   2    3.82    2.18
 -11  19  -2    3.13    2.29
  11 -19   3    1.36    1.93
 -11  19  -3    4.50    1.58
  11 -19   4    3.05    1.95
 -11  19  -4    6.22    3.31
 -11  19  -4    3.20    2.24
 -11  19  -5    0.54    1.55
 -11  19  -6    3.55    3.13
 -11  19  -6   -0.33    2.23
 -11  19  -7   -2.20    3.57
 -11  19  -7    3.68    1.92
 -11  19  -8    3.85    2.74
  11 -17 -10    3.30    3.00
 -11  17  10    6.46    3.57
  11 -17  -9    3.17    2.70
 -11  17   9    1.44    3.32
  11 -17  -8    4.39    2.74
 -11  17   8    2.50    3.33
  11 -17  -7    1.49    2.52
  11 -17  -7   -0.02    2.51
 -11  17   7   -1.00    2.93
  11 -17  -6   11.24    3.80
 -11  17   6   -0.49    3.20
  11 -17  -5    0.65    2.65
 -11  17   5    3.00    2.87
  11 -17  -4    3.86    2.81
 -11  17   4   10.20    3.07
  11 -17  -3    0.00    2.73
 -11  17   3    5.99    2.64
  11 -17  -2    2.51    2.68
 -11  17   2    5.12    3.41
 -11  17   2    2.83    2.52
  11 -17  -1    3.77    2.46
 -11  17   1   -4.40    2.73
 -11  17   1   -5.03    3.08
  11 -17   0    3.87    2.43
 -11  17   0    2.27    2.09
  11 -17   1    2.19    2.13
 -11  17  -1    3.23    1.86
  11 -17   2    2.86    2.18
 -11  17  -2    3.42    2.30
  11 -17   3    2.79    2.01
 -11  17  -3   -0.15    1.47
 -11  17  -4    2.41    3.03
  11 -17   5   -0.90    2.62
 -11  17  -5   -0.69    3.01
 -11  17  -5    8.92    2.52
 -11  17  -6    1.35    3.92
 -11  17  -6    1.13    1.95
 -11  17  -7   -2.30    4.39
 -11  17  -7   -1.71    2.09
 -11  17  -8    2.11    4.33
 -11  17  -8    2.95    2.85
  11 -15 -11   -0.63    2.82
 -11  15  11    1.29    3.27
  11 -15 -10   -0.34    2.54
 -11  15  10    0.31    3.14
 -11  15  10    0.25    3.18
  11 -15  -9    1.16    2.50
  11 -15  -8    3.11    2.51
 -11  15   8   -0.66    3.02
  11 -15  -7    2.25    2.44
 -11  15   7    1.09    3.08
  11 -15  -6    4.91    2.58
 -11  15   6    1.92    3.05
 -11  15   5    7.81    3.22
  11 -15  -4   -1.61    2.26
 -11  15   4    1.49    2.56
  11 -15  -3    2.83    2.44
 -11  15   3   -1.39    2.44
  11 -15  -2    4.58    2.58
 -11  15   2    5.18    2.61
  11 -15  -1   10.49    2.65
 -11  15   1   -0.63    3.45
 -11  15   1    6.95    2.51
 -11  15   0    5.68    2.14
  11 -15   1    3.10    2.11
 -11  15  -1    3.62    1.83
  11 -15   2    4.17    2.02
 -11  15  -2    5.37    2.22
  11 -15   3    5.30    2.13
 -11  15  -3    1.23    1.78
 -11  15  -4    4.30    2.95
 -11  15  -4    4.06    1.98
 -11  15  -5    4.98    2.18
 -11  15  -6    5.40    2.94
 -11  15  -6    4.47    2.29
 -11  15  -7    5.07    3.92
 -11  15  -7   -0.58    2.73
 -11  15  -8    3.38    3.74
 -11  15  -8    1.20    2.12
 -11  15  -9    2.77    3.40
 -11  15  -9    2.51    2.34
  11 -13 -11    3.71    2.98
 -11  13  11    4.57    3.46
  11 -13 -10    6.03    2.77
 -11  13  10    4.02    3.45
  11 -13  -9    4.49    2.55
 -11  13   9   -0.22    3.03
  11 -13  -8    4.85    2.61
 -11  13   8    5.27    3.23
  11 -13  -7    2.46    2.50
 -11  13   7    9.97    3.32
  11 -13  -6   10.25    2.63
 -11  13   6   -0.64    3.02
  11 -13  -5    0.13    2.06
 -11  13   5   -0.58    2.54
  11 -13  -4   -2.18    2.14
 -11  13   4    4.80    2.52
  11 -13  -3    7.62    2.79
 -11  13   3   12.59    2.99
  11 -13  -2    4.38    2.50
 -11  13   2    8.30    2.56
  11 -13  -1    9.53    2.47
 -11  13   1    2.80    2.33
  11 -13   0    7.15    2.28
 -11  13   0    7.38    3.00
 -11  13   0    7.61    2.17
  11 -13   1    8.25    2.22
 -11  13  -1   -2.37    2.58
 -11  13  -1    4.79    1.74
  11 -13   2    3.18    2.77
 -11  13  -2    4.29    2.66
 -11  13  -2    6.51    2.55
  11 -13   3    5.81    2.28
 -11  13  -3    3.60    1.98
  11 -13   4    6.05    2.20
 -11  13  -4    3.79    2.11
 -11  13  -5    7.76    2.92
 -11  13  -6    0.96    2.49
 -11  13  -6    1.99    2.07
 -11  13  -7   -0.91    2.60
 -11  13  -7    2.71    3.00
 -11  13  -8   -1.90    3.18
 -11  13  -8    1.06    2.21
 -11  13  -9    4.65    2.94
 -11  13  -9    3.20    2.39
 -11  13 -10   -0.21    2.38
 -11  13 -10    4.19    3.09
  11 -11 -12    0.99    3.11
 -11  11  12    4.65    3.38
  11 -11 -11    1.09    2.82
 -11  11  11    1.06    3.17
 -11  11  11    5.43    3.28
  11 -11 -10   -2.34    3.33
 -11  11  10    2.04    2.98
  11 -11  -9    0.41    2.33
 -11  11   9    1.94    3.77
  11 -11  -8   -0.56    2.22
 -11  11   8    0.07    2.77
  11 -11  -7    0.49    2.19
 -11  11   7    0.74    2.69
 -11  11   6   -1.29    2.60
  11 -11  -5    4.51    2.09
 -11  11   5   -0.01    2.60
  11 -11  -4    3.77    2.17
 -11  11   4    0.01    2.49
  11 -11  -3   -1.29    2.02
 -11  11   3    0.72    2.23
  11 -11  -2    1.76    1.98
 -11  11   2   -1.69    2.04
  11 -11  -1    4.38    2.11
 -11  11   1    1.97    1.85
  11 -11   0   -2.60    1.89
 -11  11   0    1.04    1.61
  11 -11   1    1.34    1.97
 -11  11  -1   -2.26    2.25
 -11  11  -1    0.95    1.68
  11 -11   2   -0.73    1.91
 -11  11  -2    3.48    1.78
  11 -11   3    2.66    2.08
 -11  11  -3    6.57    2.78
 -11  11  -3    2.98    1.87
  11 -11   4    0.76    2.02
 -11  11  -4    3.46    2.13
 -11  11  -4   -3.53    1.83
 -11  11  -5   -1.84    2.94
 -11  11  -6    0.11    2.16
 -11  11  -7    2.29    2.30
 -11  11  -7    2.42    3.06
 -11  11  -8   -2.45    2.70
 -11  11  -8    1.42    2.10
 -11  11  -9    1.03    1.46
 -11  11  -9    2.16    2.21
 -11  11 -10    2.95    2.44
 -11  11 -10   -0.63    3.03
  11  -9 -12    6.62    3.27
 -11   9  12    2.36    3.44
  11  -9 -11    2.91    4.05
 -11   9  11    6.61    3.39
  11  -9 -10    6.18    2.69
 -11   9  10    1.13    3.04
  11  -9  -9   -0.61    2.43
  11  -9  -9    2.38    2.39
 -11   9   9    3.53    2.79
  11  -9  -8    6.46    2.52
 -11   9   8    3.20    3.04
  11  -9  -7   10.02    2.60
 -11   9   7    5.12    3.15
  11  -9  -6    7.84    2.36
 -11   9   6    7.95    3.03
  11  -9  -5    4.96    2.18
 -11   9   5    7.86    2.74
  11  -9  -4    7.04    2.38
 -11   9   4    8.66    2.70
  11  -9  -3   11.87    2.46
 -11   9   3   10.01    2.77
  11  -9  -2   19.27    2.93
 -11   9   2   19.39    3.07
  11  -9  -1   31.51    3.40
 -11   9   1   30.00    3.15
  11  -9   0   28.83    3.30
 -11   9   0   24.73    3.04
  11  -9   1   19.03    2.45
 -11   9  -1   11.62    3.32
 -11   9  -1    9.37    3.25
  11  -9   2    9.78    2.57
 -11   9  -2   11.58    2.54
 -11   9  -2   10.12    2.18
  11  -9   3    6.12    3.27
 -11   9  -3   13.84    2.80
 -11   9  -3    8.45    2.41
  11  -9   4    8.16    2.67
 -11   9  -4   12.50    3.25
 -11   9  -4   12.76    2.66
 -11   9  -5   10.14    2.53
 -11   9  -5   10.08    2.72
 -11   9  -6    7.38    2.57
 -11   9  -7    4.15    2.82
 -11   9  -7    3.89    3.15
 -11   9  -8    1.42    2.20
 -11   9  -8   -0.34    2.12
 -11   9  -9   -0.78    1.35
 -11   9  -9    2.06    1.94
 -11   9 -10    0.81    2.48
 -11   9 -10   -2.98    2.70
 -11   9 -11    2.34    2.90
  11  -7 -13   -2.73    3.35
 -11   7  13   -0.38    3.35
  11  -7 -12    0.55    3.20
 -11   7  12    4.56    3.18
  11  -7 -11    7.34    3.12
 -11   7  11    2.86    4.47
  11  -7 -10    4.87    2.62
  11  -7 -10    4.31    2.58
 -11   7  10   -4.95    2.79
  11  -7  -9    1.12    2.35
 -11   7   9   -1.53    2.69
  11  -7  -8    2.87    2.39
 -11   7   8   -1.03    2.64
  11  -7  -7    0.16    2.07
 -11   7   7    1.94    2.53
  11  -7  -6    3.67    2.14
 -11   7   6    3.29    2.58
  11  -7  -5    1.39    2.09
 -11   7   5    3.32    2.42
  11  -7  -4    1.17    1.88
 -11   7   4   -0.96    2.17
  11  -7  -3    4.96    2.03
 -11   7   3    4.14    2.21
  11  -7  -2    5.43    2.25
 -11   7   2   10.98    2.10
  11  -7  -1    3.51    2.93
 -11   7   1   10.45    2.18
 -11   7   0    5.71    2.72
  11  -7   1    4.61    1.97
 -11   7  -1    2.55    1.80
  11  -7   2    4.97    2.23
 -11   7  -2    2.96    2.11
 -11   7  -2    3.10    2.05
  11  -7   3    7.03    2.13
 -11   7  -3    0.20    1.90
 -11   7  -3    2.80    2.14
  11  -7   4    1.85    2.34
 -11   7  -4    6.94    1.84
 -11   7  -4    3.43    2.30
 -11   7  -5    3.06    2.29
 -11   7  -6    3.41    2.31
 -11   7  -7    1.63    2.21
 -11   7  -7    2.21    2.04
 -11   7  -8    0.60    1.27
 -11   7  -8    2.14    1.96
 -11   7  -9    1.85    2.00
 -11   7 -10    2.07    3.36
 -11   7 -10    1.52    2.17
 -11   7 -11    4.58    3.65
 -11   7 -11    2.69    3.23
  11  -5 -13   -1.86    3.39
 -11   5  13    6.00    3.28
  11  -5 -12    0.91    3.05
  11  -5 -12    2.87    3.02
 -11   5  12   -0.34    2.95
  11  -5 -11    1.33    2.80
 -11   5  11   -3.83    2.87
  11  -5 -10   -1.59    3.59
 -11   5  10   -2.43    2.69
  11  -5  -9    1.75    2.57
 -11   5   9    3.23    3.63
 -11   5   8    3.04    2.64
  11  -5  -7    3.51    2.18
 -11   5   7    1.89    2.54
  11  -5  -6    1.10    2.16
 -11   5   6    2.69    2.41
  11  -5  -5    3.07    1.94
 -11   5   5   -2.92    2.23
  11  -5  -4    6.65    2.04
 -11   5   4    4.23    2.32
  11  -5  -3    3.87    2.12
 -11   5   3    9.89    2.13
  11  -5  -2   10.07    2.20
 -11   5   2   11.51    2.42
  11  -5  -1    9.88    2.31
 -11   5   1    9.72    2.29
  11  -5   0   10.98    2.16
 -11   5   0    6.06    2.04
 -11   5  -1    8.06    2.23
  11  -5   2   10.67    2.31
 -11   5  -2    5.59    2.37
 -11   5  -2    6.95    2.29
  11  -5   3    1.68    2.20
 -11   5  -3    3.99    1.72
 -11   5  -3    3.59    2.15
 -11   5  -4    3.23    1.95
 -11   5  -4    1.03    2.17
 -11   5  -5    1.70    2.03
 -11   5  -6    1.96    1.41
 -11   5  -6    1.54    2.04
 -11   5  -7    0.24    1.39
 -11   5  -7   -1.11    2.03
 -11   5  -8    1.51    1.57
 -11   5  -8    0.29    2.78
 -11   5  -9   -0.26    1.33
 -11   5  -9    3.07    2.08
 -11   5 -10    1.52    1.96
 -11   5 -10    0.59    2.03
 -11   5 -11    1.20    2.64
 -11   5 -11    1.35    2.24
  11  -3 -13   -1.43    3.19
 -11   3  13    0.79    3.01
  11  -3 -12    2.94    4.34
 -11   3  12    3.99    3.14
  11  -3 -11    4.62    3.02
 -11   3  11    3.97    2.98
  11  -3 -10    1.51    2.63
 -11   3  10   -1.40    2.47
  11  -3  -9    3.39    2.47
 -11   3   9    1.99    2.64
  11  -3  -8    8.67    2.70
 -11   3   8    6.80    2.86
  11  -3  -7    8.85    2.79
 -11   3   7    9.24    2.82
  11  -3  -6    7.30    2.45
 -11   3   6    6.66    2.66
  11  -3  -5    5.05    2.17
 -11   3   5    7.39    2.45
  11  -3  -4    9.66    2.23
 -11   3   4    7.75    2.45
  11  -3  -3   23.72    2.95
 -11   3   3   22.31    3.19
  11  -3  -2   33.62    3.63
 -11   3   2   41.07    3.84
  11  -3  -1   53.28    4.74
 -11   3   1   50.75    4.27
  11  -3   0   44.19    4.15
 -11   3   0   46.11    4.26
  11  -3   1   33.69    3.97
 -11   3  -1   34.31    3.71
  11  -3   2   13.85    2.85
 -11   3  -2   19.32    2.87
  11  -3   3   10.05    2.50
 -11   3  -3   11.18    1.87
 -11   3  -3    5.30    2.53
 -11   3  -4   14.45    2.74
 -11   3  -4    7.22    2.45
 -11   3  -5    6.78    2.36
 -11   3  -6   -0.82    2.88
 -11   3  -7   -0.61    2.10
 -11   3  -8    1.49    0.97
 -11   3  -8    1.27    1.96
 -11   3  -9    1.34    1.45
 -11   3  -9    1.32    2.72
 -11   3 -10   -1.22    2.22
 -11   3 -10    3.71    2.20
 -11   3 -11   -0.55    2.54
 -11   3 -11    1.01    2.42
  11  -1 -13   -0.18    3.32
 -11   1  13    3.90    3.00
  11  -1 -12    2.67    3.08
 -11   1  12    0.50    2.87
  11  -1 -11    2.74    2.64
 -11   1  11   -2.14    2.54
  11  -1 -10    3.48    2.55
 -11   1  10   -1.32    2.50
  11  -1  -9    9.63    2.90
 -11   1   9    7.66    2.81
  11  -1  -8    2.28    2.49
 -11   1   8   -2.55    2.28
  11  -1  -7    4.12    2.49
 -11   1   7    4.27    2.48
  11  -1  -6    6.31    2.28
 -11   1   6    2.73    2.41
  11  -1  -5   10.34    2.30
 -11   1   5    9.12    2.54
  11  -1  -4    7.40    2.27
 -11   1   4    9.74    2.23
  11  -1  -3   16.24    3.90
 -11   1   3   28.32    3.16
  11  -1  -2   37.02    3.94
 -11   1   2   39.10    3.85
  11  -1  -1   52.21    4.33
 -11   1   1   49.42    4.29
  11  -1   0   48.79    4.60
 -11   1   0   47.05    4.46
  11  -1   1   30.05    3.62
 -11   1  -1   35.24    3.67
  11  -1   2   14.02    2.99
 -11   1  -2   22.48    3.04
 -11   1  -3    9.01    2.36
 -11   1  -3    6.36    2.35
 -11   1  -4    9.99    2.23
 -11   1  -4    5.63    2.45
 -11   1  -5    2.66    2.25
 -11   1  -6    2.23    0.99
 -11   1  -6    3.50    2.04
 -11   1  -7   -2.53    2.06
 -11   1  -8    0.13    1.98
 -11   1  -9    0.73    2.51
 -11   1  -9    1.96    2.33
 -11   1 -10    4.26    2.65
 -11   1 -10    6.55    2.86
 -11   1 -11    2.69    2.22
 -11   1 -11    1.59    4.08
  11   1 -13   -2.64    2.97
 -11  -1  13   -0.77    2.81
  11   1 -12    9.92    4.06
 -11  -1  12    0.72    2.88
  11   1 -11    2.17    2.86
 -11  -1  11    5.09    2.64
  11   1 -10    2.65    2.48
 -11  -1  10   -2.50    2.36
  11   1  -9    2.51    2.81
 -11  -1   9    5.18    2.43
  11   1  -8    1.28    2.48
 -11  -1   8    2.40    2.28
  11   1  -7    4.34    2.46
 -11  -1   7    6.27    3.24
  11   1  -6   11.99    2.50
 -11  -1   6    9.72    2.65
  11   1  -5   11.77    2.46
 -11  -1   5   12.47    2.57
  11   1  -4   16.27    2.55
 -11  -1   4   18.24    2.80
  11   1  -3   28.62    3.36
 -11  -1   3   32.69    3.51
  11   1  -2   39.29    3.46
 -11  -1   2   31.83    3.46
  11   1  -1   58.82    5.04
 -11  -1   1   58.41    4.99
  11   1   0   46.62    4.27
 -11  -1   0   46.95    4.48
  11   1   1   34.72    3.67
 -11  -1  -1   28.68    3.75
  11   1   2   16.19    2.67
 -11  -1  -2    7.59    2.56
 -11  -1  -3    3.74    2.23
 -11  -1  -4    8.04    1.82
 -11  -1  -4    4.60    2.41
 -11  -1  -5    6.56    1.29
 -11  -1  -5    4.65    2.17
 -11  -1  -6    2.37    2.02
 -11  -1  -7    1.10    2.18
 -11  -1  -8    1.38    1.75
 -11  -1  -8    9.61    3.22
 -11  -1  -9    1.61    2.66
 -11  -1  -9    0.13    2.52
 -11  -1 -10    5.80    3.83
 -11  -1 -10    5.16    3.17
 -11  -1 -11   -4.54    2.57
 -11  -1 -11   -3.12    3.36
  11   3 -13    4.55    2.96
 -11  -3  13    2.28    2.77
  11   3 -12    4.41    3.09
 -11  -3  12    3.83    2.76
  11   3 -11    0.34    3.76
 -11  -3  11    1.17    2.33
  11   3 -10    2.14    2.71
 -11  -3  10    2.20    3.11
  11   3  -9    4.14    2.58
 -11  -3   9    0.54    3.01
  11   3  -8   13.34    3.54
 -11  -3   8    4.25    2.44
  11   3  -7   10.90    2.49
 -11  -3   7    6.42    2.49
  11   3  -6   11.03    2.43
 -11  -3   6   11.74    2.50
  11   3  -5    8.94    2.81
 -11  -3   5    7.95    2.10
  11   3  -4    8.66    2.38
 -11  -3   4   13.73    2.40
  11   3  -3   27.50    2.96
 -11  -3   3   29.57    3.25
  11   3  -2   44.92    4.07
 -11  -3   2   43.59    4.23
  11   3  -1   52.60    4.75
 -11  -3   1   56.18    4.84
  11   3   0   44.03    4.20
 -11  -3   0   51.53    4.55
  11   3   1   28.35    3.29
 -11  -3  -1   25.30    3.22
 -11  -3  -2   18.28    2.90
 -11  -3  -3    4.11    2.17
 -11  -3  -4    7.24    1.31
 -11  -3  -4    2.78    2.05
 -11  -3  -5    4.59    1.07
 -11  -3  -5    2.78    2.06
 -11  -3  -6    3.32    0.73
 -11  -3  -6    2.73    2.21
 -11  -3  -7    2.09    2.26
 -11  -3  -8    1.76    2.79
 -11  -3  -8    1.40    2.27
 -11  -3  -9    1.01    2.78
 -11  -3  -9    2.38    2.63
 -11  -3 -10    6.91    3.10
 -11  -3 -10    5.31    3.37
 -11  -3 -11    0.17    2.69
 -11  -3 -11    7.81    4.76
  11   5 -13    1.63    2.80
 -11  -5  13   -0.66    2.39
  11   5 -12    0.78    2.75
 -11  -5  12    1.49    2.42
  11   5 -11    2.06    2.86
 -11  -5  11    7.96    3.18
  11   5 -10    4.98    3.50
 -11  -5  10    2.43    3.04
  11   5  -9    1.94    2.26
 -11  -5   9    0.42    2.04
  11   5  -8    0.05    2.75
 -11  -5   8   -0.64    1.94
  11   5  -7    0.17    1.91
 -11  -5   7    1.79    1.92
  11   5  -6    5.28    1.88
 -11  -5   6    2.21    2.69
  11   5  -5    6.58    1.92
 -11  -5   5    2.51    1.83
  11   5  -4    6.31    1.81
 -11  -5   4    5.25    2.06
  11   5  -3   12.56    2.17
 -11  -5   3    6.53    2.91
  11   5  -2    9.95    2.11
 -11  -5   2    6.03    2.23
  11   5  -1    6.67    1.97
 -11  -5   1    8.28    2.19
  11   5   0    6.24    2.07
 -11  -5   0    8.14    2.19
 -11  -5  -1    3.03    1.92
 -11  -5  -2    2.41    1.97
 -11  -5  -3    0.04    1.66
 -11  -5  -4    0.57    0.89
 -11  -5  -4   -0.34    1.72
 -11  -5  -5    1.19    0.54
 -11  -5  -5    0.16    2.66
 -11  -5  -6    0.57    1.99
 -11  -5  -7    1.81    1.78
 -11  -5  -7    3.10    2.13
 -11  -5  -8   -2.26    2.79
 -11  -5  -8    2.52    3.12
 -11  -5  -9    1.56    2.96
 -11  -5  -9    3.09    2.88
 -11  -5 -10    7.20    3.10
 -11  -5 -10    3.15    3.68
 -11  -5 -11    0.63    2.87
 -11  -5 -11    2.35    3.86
  11   7 -12    2.56    2.49
 -11  -7  12   -0.66    2.23
  11   7 -11   -2.22    2.35
 -11  -7  11    5.32    2.75
  11   7 -10    2.42    3.11
 -11  -7  10    6.67    2.89
  11   7  -9    1.46    1.98
 -11  -7   9    1.42    1.92
  11   7  -8    1.30    2.35
 -11  -7   8   -0.28    1.80
  11   7  -7    3.42    1.86
 -11  -7   7    4.55    2.59
  11   7  -6    6.24    1.92
 -11  -7   6    5.12    1.98
  11   7  -5    5.50    2.20
 -11  -7   5    3.11    1.93
  11   7  -4    0.80    1.62
  11   7  -3    3.97    1.70
 -11  -7   3    7.60    1.88
  11   7  -2    3.22    1.71
 -11  -7   2    6.10    1.96
  11   7  -1    7.53    1.93
 -11  -7   1    5.99    2.09
 -11  -7   0    0.59    1.76
 -11  -7  -1   -1.07    1.79
 -11  -7  -2    1.95    1.63
 -11  -7  -3    4.30    1.71
 -11  -7  -4    2.49    0.72
 -11  -7  -4   -1.16    1.85
 -11  -7  -5    1.18    1.82
 -11  -7  -6    3.13    1.91
 -11  -7  -6   10.99    2.12
 -11  -7  -7    5.07    3.23
 -11  -7  -7    6.47    3.14
 -11  -7  -8    4.13    3.27
 -11  -7  -8    7.52    3.35
 -11  -7  -9    3.13    3.12
 -11  -7  -9    3.47    3.52
 -11  -7 -10    2.35    3.01
 -11  -7 -10    1.73    3.69
 -11  -7 -11    2.19    3.15
 -11  -7 -11    3.48    3.90
  11   9 -12    0.66    2.15
 -11  -9  12    2.85    1.99
 -11  -9  12   -0.25    2.11
  11   9 -11    2.49    2.01
 -11  -9  11    5.60    2.72
  11   9 -10    0.71    2.32
 -11  -9  10    2.04    2.48
  11   9  -9    5.58    1.73
 -11  -9   9    2.02    1.89
  11   9  -8   11.14    2.50
 -11  -9   8    6.08    2.03
  11   9  -7   11.01    1.78
 -11  -9   7   10.75    2.15
  11   9  -6    8.99    1.68
 -11  -9   6   11.11    1.92
 -11  -9   5    8.71    2.08
  11   9  -4    9.86    1.72
 -11  -9   4    9.91    2.02
  11   9  -3   14.59    2.04
  11   9  -2   20.42    2.36
 -11  -9   2   21.29    2.73
 -11  -9   1   30.49    3.25
 -11  -9   0   21.28    2.61
 -11  -9  -1    7.52    2.04
 -11  -9  -2    2.53    1.57
 -11  -9  -3    2.05    1.64
 -11  -9  -4    1.38    2.38
 -11  -9  -5    7.21    2.88
 -11  -9  -6    3.00    3.01
 -11  -9  -6    2.87    2.97
 -11  -9  -7   10.36    3.49
 -11  -9  -7    7.06    3.67
 -11  -9  -8    3.31    3.07
 -11  -9  -8   -1.29    3.31
 -11  -9  -9    1.81    3.00
 -11  -9  -9   -1.10    3.42
 -11  -9 -10    1.16    3.18
 -11  -9 -10    1.82    3.75
 -11  -9 -11    2.73    4.01
  11  11 -12   -0.28    1.03
 -11 -11  12    1.82    2.38
  11  11 -11   -0.74    1.38
 -11 -11  11    0.44    1.75
  11  11 -10    2.43    1.46
 -11 -11  10    0.03    1.85
  11  11  -9    1.19    1.04
 -11 -11   9    3.56    1.61
  11  11  -8    3.14    1.49
 -11 -11   8   -1.04    2.15
  11  11  -7    0.95    1.69
 -11 -11   7    2.26    1.60
  11  11  -6    1.13    1.21
 -11 -11   6   -1.60    1.93
  11  11  -5    2.59    1.29
 -11 -11   5   -0.93    1.63
  11  11  -3    0.07    1.46
 -11 -11   3    1.11    1.66
 -11 -11   2    0.00    1.61
 -11 -11   1   -1.77    1.60
 -11 -11   0    1.47    1.57
 -11 -11  -1    2.31    1.37
 -11 -11  -2   -0.81    1.83
 -11 -11  -3    1.05    0.65
 -11 -11  -3    0.50    2.11
 -11 -11  -4    1.36    2.28
 -11 -11  -5    1.60    2.87
 -11 -11  -5    4.19    2.76
 -11 -11  -6    0.68    2.97
 -11 -11  -6   -4.50    3.01
 -11 -11  -7    0.55    2.95
 -11 -11  -7    0.30    3.11
 -11 -11  -8   11.04    3.43
 -11 -11  -8    1.90    3.85
 -11 -11  -9   -1.12    3.07
 -11 -11  -9   -0.05    3.55
 -11 -11 -10    3.67    3.55
 -11 -11 -10    3.78    4.02
  11  13 -11   -0.22    1.44
 -11 -13  11    1.56    1.62
  11  13 -10    0.10    1.15
 -11 -13  10   -0.32    2.05
  11  13  -9    1.46    1.65
 -11 -13   9    0.61    1.50
  11  13  -8    4.05    1.29
 -11 -13   8    3.24    2.06
  11  13  -7    2.92    1.81
 -11 -13   7    2.53    1.50
  11  13  -6    0.84    1.89
  11  13  -5    5.53    1.58
 -11 -13   5    0.94    2.28
 -11 -13   4    2.04    1.58
 -11 -13   3    3.31    1.72
 -11 -13   2    2.50    2.19
 -11 -13   1    7.33    1.70
 -11 -13   0    0.30    1.40
 -11 -13  -1    0.73    1.66
 -11 -13  -2    0.68    1.00
 -11 -13  -2    4.05    2.14
 -11 -13  -3    0.82    0.50
 -11 -13  -3    3.62    2.22
 -11 -13  -4    6.81    2.82
 -11 -13  -4    0.35    2.56
 -11 -13  -5    3.94    3.24
 -11 -13  -5   11.58    3.23
 -11 -13  -6   18.67    4.41
 -11 -13  -6   19.86    4.59
 -11 -13  -7    0.17    3.29
 -11 -13  -7    5.71    3.40
 -11 -13  -8    6.65    3.42
 -11 -13  -8    3.15    3.81
 -11 -13  -9    5.97    3.84
 -11 -13  -9    9.33    4.21
 -11 -13 -10   -1.61    3.40
 -11 -13 -10    0.90    3.83
  11  15 -11    3.43    1.89
 -11 -15  11    0.76    2.02
  11  15 -10    0.84    1.86
 -11 -15  10    1.43    1.92
  11  15  -9    1.34    1.94
 -11 -15   9    0.69    1.81
  11  15  -8    1.55    2.03
 -11 -15   8    3.51    1.83
 -11 -15   7    2.45    1.83
 -11 -15   6    4.48    1.40
 -11 -15   5    0.31    1.95
 -11 -15   4    4.01    1.63
 -11 -15   3    0.97    1.98
 -11 -15   2    0.98    1.41
 -11 -15   1    5.33    1.47
 -11 -15   0   -0.46    1.32
 -11 -15   0    0.34    1.57
 -11 -15  -1   -2.46    1.18
 -11 -15  -1    1.01    1.75
 -11 -15  -2   -1.26    1.16
 -11 -15  -2    3.93    2.07
 -11 -15  -3    0.37    0.64
 -11 -15  -3    1.99    2.56
 -11 -15  -3    1.06    2.25
 -11 -15  -4    7.91    3.00
 -11 -15  -4    2.29    2.75
 -11 -15  -5    5.55    3.22
 -11 -15  -5    6.45    3.27
 -11 -15  -6    2.16    3.07
 -11 -15  -6    0.66    3.16
 -11 -15  -7    6.38    3.52
 -11 -15  -7    6.71    3.78
 -11 -15  -8    6.69    3.43
 -11 -15  -8   -0.20    3.70
 -11 -15  -9    0.19    3.47
 -11 -15  -9    1.59    3.70
 -11 -17  10    2.55    3.23
 -11 -17  10    0.28    2.18
 -11 -17   9    1.39    3.01
 -11 -17   9   -1.42    1.61
 -11 -17   8    3.68    1.64
 -11 -17   7    1.78    1.60
 -11 -17   6    3.19    1.35
 -11 -17   5    1.73    1.85
 -11 -17   4    2.48    1.74
 -11 -17   4    2.77    1.95
 -11 -17   3   -0.13    1.53
 -11 -17   3   -1.34    1.31
 -11 -17   2   -2.01    1.84
 -11 -17   2    3.62    1.52
 -11 -17   1   -2.58    1.23
 -11 -17   1    2.22    2.30
 -11 -17   0   -0.84    1.60
 -11 -17   0    2.94    1.65
 -11 -17  -1    1.49    1.00
 -11 -17  -1   -0.07    1.45
 -11 -17  -1    3.47    1.98
 -11 -17  -2    1.09    0.89
 -11 -17  -2    5.77    2.52
 -11 -17  -2   -0.25    2.18
 -11 -17  -3    1.23    0.84
 -11 -17  -3    2.02    2.62
 -11 -17  -3    4.83    3.17
 -11 -17  -4    4.59    2.82
 -11 -17  -4    0.21    2.61
 -11 -17  -5    4.49    2.96
 -11 -17  -5   -1.88    2.96
 -11 -17  -6    2.56    4.04
 -11 -17  -6   -0.63    3.11
 -11 -17  -7    7.49    3.49
 -11 -17  -7    2.60    3.67
 -11 -17  -8    2.77    3.39
 -11 -17  -8    0.25    3.65
 -11 -17  -9    7.23    4.24
 -11 -19   9    3.65    3.54
 -11 -19   9    1.71    1.45
 -11 -19   8    0.18    3.10
 -11 -19   8    0.34    1.32
 -11 -19   7    2.53    2.82
 -11 -19   7    0.77    1.41
 -11 -19   6    6.32    2.47
 -11 -19   6   -0.36    1.14
 -11 -19   5   -3.65    2.91
 -11 -19   5   -0.16    1.20
 -11 -19   4    1.56    1.94
 -11 -19   4    2.06    1.67
 -11 -19   3    1.15    1.70
 -11 -19   3   -0.03    1.50
 -11 -19   2    0.10    2.16
 -11 -19   2    1.49    2.10
 -11 -19   1    1.51    1.49
 -11 -19   1    2.26    1.27
 -11 -19   1    0.58    2.43
 -11 -19   0    0.01    1.07
 -11 -19   0    0.55    2.08
 -11 -19   0   -0.67    2.26
 -11 -19  -1    1.30    1.24
 -11 -19  -1    4.12    2.35
 -11 -19  -1    0.03    2.04
 -11 -19  -2    3.18    2.41
 -11 -19  -2   -2.72    2.05
 -11 -19  -3    3.57    2.85
 -11 -19  -3    5.43    2.53
 -11 -19  -4    2.21    2.78
 -11 -19  -4    0.99    2.71
 -11 -19  -5    9.56    4.83
 -11 -19  -6    4.39    3.21
 -11 -19  -6    2.45    3.37
 -11 -19  -7   -1.63    3.42
 -11 -19  -7    7.40    3.56
 -11 -19  -8   -0.39    3.58
 -11 -21   8    1.76    3.60
 -11 -21   7    5.29    3.28
 -11 -21   7    1.88    1.24
 -11 -21   6    3.41    2.83
 -11 -21   6    0.77    1.34
 -11 -21   5    2.83    3.53
 -11 -21   5    0.49    1.04
 -11 -21   4    3.34    2.29
 -11 -21   4    0.56    0.99
 -11 -21   4   -0.94    1.93
 -11 -21   3    2.77    2.09
 -11 -21   3    3.17    1.77
 -11 -21   3    1.66    2.20
 -11 -21   2    0.91    2.44
 -11 -21   2    0.07    2.34
 -11 -21   2   -2.80    2.18
 -11 -21   1    7.39    2.01
 -11 -21   1    1.51    2.13
 -11 -21   1    2.02    1.96
 -11 -21   0    4.45    1.66
 -11 -21   0    0.84    2.22
 -11 -21   0    2.27    1.84
 -11 -21  -1    3.22    1.49
 -11 -21  -1    5.13    3.34
 -11 -21  -1    6.50    2.96
 -11 -21  -2   -0.07    1.09
 -11 -21  -2    4.96    2.51
 -11 -21  -2    2.17    2.13
 -11 -21  -3    0.05    0.84
 -11 -21  -3    0.99    2.58
 -11 -21  -3    6.36    2.35
 -11 -21  -4    4.83    2.93
 -11 -21  -4    2.24    2.88
 -11 -21  -5    3.46    3.12
 -11 -21  -5    2.24    3.14
 -11 -21  -6    4.08    3.39
 -11 -21  -6    3.56    3.45
 -11 -21  -7   -0.18    3.39
 -11 -21  -7    2.31    3.52
 -11 -23   7    2.78    3.65
 -11 -23   6   -2.64    3.13
 -11 -23   6    1.63    1.86
 -11 -23   6    2.81    1.51
 -11 -23   5    5.86    2.75
 -11 -23   5   -0.60    1.48
 -11 -23   5    2.46    1.77
 -11 -23   4    4.45    2.47
 -11 -23   4    0.97    2.12
 -11 -23   4    1.07    2.06
 -11 -23   3    3.02    1.91
 -11 -23   3    2.26    2.25
 -11 -23   3   -0.72    2.21
 -11 -23   2    6.68    2.29
 -11 -23   2   -2.90    2.36
 -11 -23   2   -0.50    2.25
 -11 -23   1   -1.91    1.93
 -11 -23   1   -0.33    1.84
 -11 -23   0    6.40    1.83
 -11 -23   0    0.36    2.00
 -11 -23   0    0.14    1.84
 -11 -23  -1    3.22    1.60
 -11 -23  -1   12.55    3.20
 -11 -23  -2    1.54    1.57
 -11 -23  -2    6.03    2.45
 -11 -23  -2    1.93    2.22
 -11 -23  -3   10.49    3.20
 -11 -23  -4   10.98    4.25
 -11 -23  -4    3.03    3.01
 -11 -23  -5    1.38    3.03
 -11 -23  -5   -0.15    3.02
 -11 -23  -6    2.84    3.45
 -11 -25   5    0.99    2.65
 -11 -25   5    4.91    1.91
 -11 -25   4    1.93    3.04
 -11 -25   4    3.00    2.02
 -11 -25   4   -0.33    2.08
 -11 -25   3    1.54    2.02
 -11 -25   3    2.41    2.18
 -11 -25   3    3.11    2.28
 -11 -25   2    6.67    2.44
 -11 -25   2    1.19    1.71
 -11 -25   2   -0.35    2.35
 -11 -25   1    6.73    2.26
 -11 -25   1    4.66    1.90
 -11 -25   1   -0.01    1.99
 -11 -25   0    1.88    1.97
 -11 -25   0    1.74    1.78
 -11 -25  -1    7.05    2.12
 -11 -25  -1    1.12    3.06
 -11 -25  -2   -0.59    1.39
 -11 -25  -2    0.79    2.30
 -11 -25  -2    2.28    2.05
 -11 -25  -3    3.33    2.73
 -11 -25  -4    1.43    2.93
 -11 -25  -4    2.56    2.75
 -11 -27   2    2.98    2.43
 -11 -27   1   -1.04    1.89
 -11 -27   0    2.89    1.43
 -11 -27   0    2.06    2.08
 -11 -27   0    2.48    1.84
 -11 -27  -1    1.35    1.35
 -11 -27  -1    2.25    2.16
 -12  26   2    5.03    3.07
 -12  26   1   -0.18    2.60
 -12  26   0    3.11    2.34
  12 -24  -5    3.01    3.57
 -12  24   5   -1.12    4.54
 -12  24   5    3.14    3.37
  12 -24  -4   -1.22    3.78
 -12  24   4    3.59    4.09
 -12  24   4    2.94    3.14
  12 -24  -3    2.16    3.86
 -12  24   3    2.50    3.79
 -12  24   3    5.52    3.15
  12 -24  -2    6.88    3.80
 -12  24   2    3.35    2.99
  12 -24  -1   -1.56    3.22
 -12  24   1   -0.36    2.47
 -12  24   0    3.21    3.08
  12 -24   1    4.77    2.64
 -12  24  -1    5.47    1.98
  12 -24   2    2.04    2.42
 -12  24  -2    3.71    2.08
  12 -24   3   -1.52    2.12
 -12  24  -3    2.59    1.37
  12 -22  -7   -0.13    3.36
 -12  22   7   -0.28    3.48
  12 -22  -6    4.67    3.48
 -12  22   6    4.83    3.66
  12 -22  -5    3.57    3.47
 -12  22   5    1.12    5.22
 -12  22   5    5.97    3.38
  12 -22  -4    1.89    3.62
 -12  22   4    2.82    4.34
 -12  22   4    2.42    3.22
  12 -22  -3    7.26    3.77
 -12  22   3    2.01    4.07
 -12  22   3    6.16    3.20
  12 -22  -2    7.24    3.88
 -12  22   2   14.14    3.89
 -12  22   2    5.58    3.17
  12 -22  -1    3.61    3.45
 -12  22   1    6.12    2.73
 -12  22   0    6.21    2.43
  12 -22   1    2.66    2.56
 -12  22  -1    4.87    1.97
  12 -22   2    9.70    2.44
 -12  22  -2   -0.50    1.74
  12 -22   3    4.18    2.29
 -12  22  -3    2.93    1.71
  12 -22   4    3.79    2.04
 -12  22  -4    2.71    1.82
  12 -22   5    5.06    2.54
 -12  22  -5    3.26    2.71
  12 -20  -8    4.07    3.49
 -12  20   8   11.80    4.13
  12 -20  -7    7.87    3.38
 -12  20   7    1.48    3.71
  12 -20  -6    5.03    3.15
 -12  20   6    3.61    3.54
  12 -20  -5    9.97    3.59
 -12  20   5    7.33    3.74
  12 -20  -4    4.62    3.49
 -12  20   4    3.83    3.32
  12 -20  -3   10.80    3.93
 -12  20   3    9.64    4.66
 -12  20   3   10.01    4.67
  12 -20  -2    9.39    4.62
 -12  20   2    4.89    3.78
 -12  20   2    3.96    2.88
  12 -20  -1    6.91    3.20
 -12  20   1    3.57    2.63
  12 -20   0    8.12    2.88
 -12  20   0    6.35    2.46
  12 -20   1    6.58    2.65
 -12  20  -1    6.56    2.17
  12 -20   2    7.66    2.39
 -12  20  -2    6.80    2.03
  12 -20   3    8.68    2.45
 -12  20  -3    3.59    1.96
  12 -20   4    5.39    2.93
 -12  20  -4    3.54    1.99
 -12  20  -5    3.60    2.05
 -12  20  -6    3.85    3.63
 -12  20  -6    4.65    2.02
  12 -18  -9    3.27    3.05
  12 -18  -9    4.72    2.98
 -12  18   9    0.59    5.15
  12 -18  -8   -0.98    2.91
 -12  18   8    6.54    3.45
  12 -18  -7    3.53    3.10
 -12  18   7    5.65    3.58
  12 -18  -6   -0.22    2.60
 -12  18   6    1.35    3.20
  12 -18  -5    2.38    2.96
 -12  18   5    5.26    3.30
  12 -18  -4   -3.91    3.01
 -12  18   4    8.53    3.04
  12 -18  -3    2.55    3.01
 -12  18   3    2.25    2.76
  12 -18  -2    0.83    2.96
 -12  18   2   -5.65    3.57
 -12  18   2    6.47    2.58
  12 -18  -1    8.23    3.05
 -12  18   1    2.59    3.47
 -12  18   1    5.56    2.57
  12 -18   0    8.11    2.63
 -12  18   0    1.85    3.38
 -12  18   0    6.59    2.31
  12 -18   1    5.43    2.42
 -12  18  -1    1.38    2.01
  12 -18   2    2.29    2.16
 -12  18  -2    3.40    1.86
  12 -18   3    3.33    2.38
 -12  18  -3    4.62    1.94
 -12  18  -4    2.58    1.81
  12 -18   5    5.55    2.22
 -12  18  -5    3.98    2.03
 -12  18  -6    2.66    2.16
 -12  18  -7    2.17    4.59
 -12  18  -7   -0.05    2.86
  12 -16 -10    0.53    2.97
 -12  16  10    5.69    3.69
  12 -16  -9   -4.32    2.66
 -12  16   9    6.28    3.46
  12 -16  -8    4.64    2.81
 -12  16   8    2.59    3.57
  12 -16  -7    5.64    3.07
 -12  16   7    7.16    3.67
 -12  16   6    3.08    3.32
  12 -16  -5   10.03    3.25
 -12  16   5   16.10    5.03
  12 -16  -4    7.80    3.00
 -12  16   4    3.85    3.14
  12 -16  -3    6.09    2.89
 -12  16   3    0.05    2.86
  12 -16  -2    7.10    2.99
 -12  16   2    2.51    3.76
  12 -16  -1   10.72    4.33
 -12  16   1    8.37    4.08
 -12  16   1   12.82    2.93
  12 -16   0    6.54    2.65
 -12  16   0    9.11    3.33
 -12  16   0    6.29    2.40
  12 -16   1    9.36    2.58
 -12  16  -1    2.57    2.86
  12 -16   2    2.81    2.99
 -12  16  -2    4.17    1.80
 -12  16  -3    6.41    1.95
  12 -16   4    7.03    2.51
 -12  16  -4    8.90    3.47
 -12  16  -4    7.87    2.34
 -12  16  -5    6.86    2.45
 -12  16  -6    1.98    2.30
 -12  16  -7    2.43    3.34
 -12  16  -7    5.29    3.30
 -12  16  -8    1.54    2.24
  12 -14 -11    5.66    3.11
 -12  14  11   -0.82    3.72
  12 -14 -10    4.29    2.83
 -12  14  10   -0.92    3.62
  12 -14  -9    1.65    2.72
 -12  14   9    5.76    3.43
  12 -14  -8    7.71    3.03
 -12  14   8    6.23    3.69
  12 -14  -7   11.52    3.22
 -12  14   7   11.79    4.16
  12 -14  -6    2.99    2.55
 -12  14   6    5.22    3.22
  12 -14  -5    2.84    2.47
 -12  14   5   -0.83    2.90
 -12  14   4    7.21    3.18
  12 -14  -3    7.31    2.54
  12 -14  -2   11.12    2.94
 -12  14   2    7.03    2.92
  12 -14  -1    9.50    2.66
 -12  14   1    0.91    2.44
  12 -14   0    5.61    2.53
 -12  14   0    9.39    3.36
 -12  14   0    5.46    2.32
  12 -14   1    5.79    2.62
 -12  14  -1    4.96    1.95
  12 -14   2    5.12    2.47
 -12  14  -2    7.17    2.12
  12 -14   3    5.80    2.55
 -12  14  -3    3.49    2.15
 -12  14  -4    3.82    2.26
  12 -14   5    5.03    2.33
 -12  14  -5    5.77    2.90
 -12  14  -5   -1.20    2.40
 -12  14  -6    6.66    2.84
 -12  14  -6    1.15    2.35
 -12  14  -7    1.00    2.90
 -12  14  -7    2.60    2.35
 -12  14  -8   -1.19    2.68
 -12  14  -8    3.65    2.50
 -12  14  -9    1.76    3.36
  12 -12 -11    5.50    3.10
 -12  12  11    0.57    3.68
  12 -12 -10    2.88    2.97
 -12  12  10    7.28    3.66
  12 -12  -9    5.49    2.86
 -12  12   9    7.44    3.59
  12 -12  -8    8.87    3.14
 -12  12   8   11.09    3.87
  12 -12  -7   10.28    3.05
 -12  12   7   17.37    4.08
  12 -12  -6   13.07    3.37
 -12  12   6   23.42    4.22
  12 -12  -5   24.42    3.78
 -12  12   5   16.01    4.28
  12 -12  -4   26.40    4.10
 -12  12   4   25.18    4.44
  12 -12  -3   38.72    4.92
 -12  12   3   43.61    5.38
  12 -12  -2   60.00    6.09
 -12  12   2   58.58    6.21
 -12  12   1   80.17    7.06
  12 -12   0   63.94    6.04
 -12  12   0   75.73    8.68
 -12  12   0   55.29    6.65
  12 -12   1   49.57    5.22
 -12  12  -1   49.07    5.90
 -12  12  -1   44.56    4.43
  12 -12   2   33.98    4.20
 -12  12  -2   40.42    4.96
 -12  12  -3   41.86    5.86
 -12  12  -3   34.77    5.60
  12 -12   4   29.75    4.07
 -12  12  -4   26.54    3.62
  12 -12   5   20.30    3.65
 -12  12  -5   24.48    3.55
 -12  12  -6   10.45    3.11
 -12  12  -7    7.78    3.10
 -12  12  -7   10.61    3.00
 -12  12  -8    2.59    2.49
 -12  12  -8    5.80    2.68
 -12  12  -9    4.62    2.79
 -12  12  -9    3.64    3.53
  12 -10 -12   -0.91    3.28
 -12  10  12    5.52    3.52
  12 -10 -11    2.45    2.91
 -12  10  11    0.46    3.38
  12 -10 -10    1.04    2.68
 -12  10  10    0.78    3.13
  12 -10  -9    0.50    2.54
 -12  10   9   -3.83    3.14
  12 -10  -8    0.06    2.41
 -12  10   8   -0.84    2.97
  12 -10  -7    0.81    2.39
 -12  10   7    8.93    3.10
  12 -10  -6    1.30    2.22
 -12  10   6    1.21    2.79
 -12  10   5   -0.03    2.60
  12 -10  -4    7.99    2.49
 -12  10   4    3.50    2.82
  12 -10  -3    5.29    2.40
 -12  10   3    5.13    2.65
  12 -10  -2    7.47    2.50
 -12  10   2    6.44    2.51
  12 -10  -1    9.49    2.58
 -12  10   1   12.48    2.36
  12 -10   0    6.61    2.58
 -12  10   0    8.13    2.29
  12 -10   1    9.55    2.40
 -12  10  -1    6.48    3.04
 -12  10  -1    7.97    2.29
  12 -10   2   10.28    2.57
 -12  10  -2    3.84    2.52
 -12  10  -2    1.01    2.30
 -12  10  -3    6.95    2.99
 -12  10  -4    4.24    2.49
 -12  10  -5    2.15    2.48
 -12  10  -6    0.56    2.41
 -12  10  -7    1.78    2.18
 -12  10  -7    0.58    2.40
 -12  10  -8    1.81    2.50
 -12  10  -8   -1.31    2.32
 -12  10  -9   -0.99    2.02
 -12  10  -9    4.64    2.38
 -12  10 -10    2.26    3.33
  12  -8 -12    1.04    3.37
 -12   8  12    6.17    3.56
  12  -8 -11   -6.01    4.02
 -12   8  11    1.76    3.25
  12  -8 -10    3.60    2.90
 -12   8  10    4.59    3.22
  12  -8  -9    3.38    2.66
 -12   8   9    0.50    3.05
  12  -8  -8    2.49    2.38
 -12   8   8    1.74    2.96
  12  -8  -7    5.96    2.39
 -12   8   7   -0.74    2.92
  12  -8  -6    0.75    2.29
 -12   8   6   -0.06    2.65
  12  -8  -5   -1.67    2.19
 -12   8   5    4.52    2.55
  12  -8  -4    0.06    2.09
 -12   8   4   -1.69    2.40
  12  -8  -3    4.54    2.20
 -12   8   3    2.87    2.40
  12  -8  -2    1.08    2.05
 -12   8   2    0.54    1.89
  12  -8  -1   -1.25    1.99
 -12   8   1    1.66    1.98
  12  -8   0   -0.13    2.17
 -12   8   0    1.23    1.96
  12  -8   1    6.30    2.29
 -12   8  -1    4.12    2.20
  12  -8   2    1.40    2.35
 -12   8  -2    1.76    2.23
 -12   8  -2    3.00    2.03
  12  -8   3    2.89    2.35
 -12   8  -3    4.19    2.17
 -12   8  -3    1.56    2.32
 -12   8  -4    0.84    1.88
 -12   8  -5   -2.72    3.35
 -12   8  -6   -0.23    1.85
 -12   8  -6    4.34    2.41
 -12   8  -7    6.49    3.57
 -12   8  -8   -0.21    1.83
 -12   8  -8    3.56    2.29
 -12   8  -9    1.20    1.38
 -12   8  -9    0.63    2.14
 -12   8 -10    3.03    2.66
 -12   8 -10    3.22    2.30
  12  -6 -12    0.92    3.26
 -12   6  12    1.26    3.26
  12  -6 -11    3.07    3.23
 -12   6  11    5.05    3.22
  12  -6 -10   -2.09    2.84
 -12   6  10    5.37    2.90
  12  -6  -9    6.68    2.82
 -12   6   9    6.81    3.24
  12  -6  -8    5.13    2.71
 -12   6   8    7.02    3.13
  12  -6  -7    8.58    3.05
 -12   6   7   11.54    3.34
  12  -6  -6   12.51    2.96
 -12   6   6   12.58    3.41
  12  -6  -5    9.98    2.64
 -12   6   5    9.92    3.09
  12  -6  -4    8.12    2.45
 -12   6   4    8.45    2.77
  12  -6  -3   19.68    3.13
 -12   6   3   23.75    3.09
  12  -6  -2   29.30    3.52
 -12   6   2   33.14    3.80
  12  -6  -1   47.16    4.74
  12  -6   0   34.60    3.93
 -12   6   0   39.94    3.93
  12  -6   1   25.05    3.74
 -12   6  -1   25.15    3.20
  12  -6   2   20.55    3.15
 -12   6  -2   14.83    3.07
 -12   6  -2   14.67    3.13
  12  -6   3   13.69    3.11
 -12   6  -3   11.46    3.37
 -12   6  -3   15.53    3.04
  12  -6   4   15.50    3.20
 -12   6  -4   16.58    2.98
 -12   6  -4   12.98    3.23
 -12   6  -5   14.44    3.27
 -12   6  -6    9.23    1.88
 -12   6  -6    6.78    2.88
 -12   6  -7    0.72    2.20
 -12   6  -8    2.65    1.34
 -12   6  -8    2.86    2.21
 -12   6  -9    3.53    2.31
 -12   6 -10    3.56    2.34
 -12   6 -10    1.89    2.48
  12  -4 -12    6.71    3.65
 -12   4  12    4.82    4.72
  12  -4 -11    5.54    2.84
 -12   4  11   -4.20    2.85
  12  -4 -10   -0.64    2.68
 -12   4  10    3.51    2.87
  12  -4  -9    0.95    2.65
 -12   4   9   -5.42    2.80
  12  -4  -8    2.35    2.59
 -12   4   8   -0.74    2.66
 -12   4   7    2.34    2.67
  12  -4  -6    2.69    2.33
 -12   4   6    3.71    2.60
  12  -4  -5    0.26    2.06
 -12   4   5    1.65    2.34
  12  -4  -4    3.47    1.98
 -12   4   4   -2.40    2.24
  12  -4  -3    4.57    2.01
 -12   4   3    3.40    2.09
  12  -4  -2    8.75    2.43
 -12   4   2   12.14    2.54
  12  -4  -1   15.81    3.01
 -12   4   1   18.61    2.85
  12  -4   0    7.64    2.46
 -12   4   0   10.67    2.34
  12  -4   1   13.00    2.99
 -12   4  -1   14.48    2.80
  12  -4   2    5.22    2.38
 -12   4  -2    2.86    2.37
  12  -4   3    1.33    2.34
 -12   4  -3    2.07    1.72
 -12   4  -3    0.09    2.32
 -12   4  -4    3.75    2.52
 -12   4  -5    5.70    1.60
 -12   4  -5    0.29    2.39
 -12   4  -6    0.34    1.29
 -12   4  -6    1.46    2.19
 -12   4  -7    2.42    2.31
 -12   4  -8    2.59    1.58
 -12   4  -8    3.94    2.35
 -12   4  -9    2.77    1.65
 -12   4  -9    1.77    2.41
 -12   4 -10    2.51    3.47
 -12   4 -10    3.49    2.56
  12  -2 -12    4.20    3.29
 -12   2  12    3.49    3.18
  12  -2 -11   -5.37    2.98
 -12   2  11    4.23    3.82
  12  -2 -10    3.66    2.92
 -12   2  10    4.47    2.87
  12  -2  -9    1.43    2.86
 -12   2   9    2.36    2.64
  12  -2  -8    1.80    2.73
 -12   2   8    1.94    2.60
  12  -2  -7    4.58    2.61
 -12   2   7    3.57    2.67
  12  -2  -6    3.97    2.32
 -12   2   6    2.22    2.56
  12  -2  -5    3.37    2.10
 -12   2   5    2.27    2.33
  12  -2  -4    3.42    2.06
 -12   2   4    3.22    2.07
  12  -2  -3   -1.46    1.98
 -12   2   3    6.44    2.18
  12  -2  -2    6.88    2.46
 -12   2   2    7.74    2.38
  12  -2  -1   11.11    2.59
 -12   2   1   16.72    2.56
  12  -2   0   12.88    2.97
 -12   2   0   15.77    2.84
  12  -2   1    9.50    2.50
 -12   2  -1    4.07    2.48
  12  -2   2    3.01    2.37
 -12   2  -2    2.29    2.32
  12  -2   3    1.17    2.27
 -12   2  -3    3.69    2.21
 -12   2  -3   -1.21    2.32
 -12   2  -4    2.36    2.28
 -12   2  -4    3.79    2.28
 -12   2  -5    2.52    2.29
 -12   2  -6    0.02    2.24
 -12   2  -7   -1.80    1.32
 -12   2  -7    0.59    2.26
 -12   2  -8   -1.01    2.08
 -12   2  -9    2.02    1.72
 -12   2  -9    0.40    2.21
 -12   2 -10    1.70    2.68
 -12   2 -10    0.87    3.23
 -12   2 -11   -3.92    2.85
  12   0 -12    4.35    3.29
 -12   0  12    4.22    3.06
  12   0 -11   -2.90    3.30
 -12   0  11   -3.52    2.76
  12   0 -10    2.83    2.98
 -12   0  10   -4.62    2.61
  12   0  -9   -0.23    2.77
 -12   0   9   -1.15    2.50
  12   0  -8    4.63    2.71
 -12   0   8    1.02    2.54
  12   0  -7    4.25    2.67
 -12   0   7    8.25    2.69
  12   0  -6    8.36    2.54
 -12   0   6    7.28    2.70
  12   0  -5    4.80    2.18
 -12   0   5    4.52    2.38
  12   0  -4    4.04    2.04
 -12   0   4    2.94    2.04
  12   0  -3   12.41    2.60
  12   0  -2   20.31    2.88
 -12   0   2   20.76    2.95
  12   0  -1   31.53    3.84
 -12   0   1   31.01    3.74
  12   0   0   23.31    3.50
 -12   0   0   29.14    3.58
  12   0   1   14.52    2.93
 -12   0  -1   15.74    2.96
  12   0   2    5.54    2.45
 -12   0  -2    6.94    2.51
 -12   0  -3    7.54    1.88
 -12   0  -3    2.58    2.38
 -12   0  -4    7.12    1.57
 -12   0  -4    2.51    2.47
 -12   0  -5    5.83    1.50
 -12   0  -5    0.10    3.41
 -12   0  -6    2.28    2.38
 -12   0  -7    2.35    2.13
 -12   0  -8    0.41    2.15
 -12   0  -9    0.75    2.84
 -12   0  -9    0.25    2.27
 -12   0 -10    2.11    2.97
 -12   0 -10    4.68    2.95
 -12   0 -11    0.17    3.12
  12   2 -12    3.84    4.40
 -12  -2  12    1.44    2.80
  12   2 -11   -1.27    3.01
 -12  -2  11    1.82    2.46
  12   2 -10    3.19    2.86
 -12  -2  10   -3.44    2.46
  12   2  -9    1.67    2.73
 -12  -2   9    1.31    2.39
  12   2  -8    5.88    2.61
 -12  -2   8    1.96    2.45
  12   2  -7    4.32    2.39
 -12  -2   7    1.93    2.41
  12   2  -6    3.90    2.18
 -12  -2   6    2.82    2.34
  12   2  -5    3.66    1.97
 -12  -2   5    1.48    2.02
  12   2  -4    2.84    2.16
 -12  -2   4    5.42    2.97
  12   2  -3    7.14    2.16
 -12  -2   3    7.74    2.35
  12   2  -2   12.92    2.43
 -12  -2   2    9.89    2.42
  12   2  -1   15.35    3.00
 -12  -2   1   18.80    2.95
  12   2   0    9.12    2.53
 -12  -2   0   12.24    2.61
  12   2   1    6.31    2.45
 -12  -2  -1    6.92    3.37
 -12  -2  -2    0.25    2.04
 -12  -2  -3    0.79    2.08
 -12  -2  -4    3.54    1.44
 -12  -2  -4   -0.06    2.30
 -12  -2  -5    2.88    1.06
 -12  -2  -5   -1.70    2.07
 -12  -2  -6   -1.23    2.06
 -12  -2  -7    1.30    2.10
 -12  -2  -8    1.70    1.81
 -12  -2  -8    0.09    2.40
 -12  -2  -9    3.41    3.07
 -12  -2  -9    0.71    2.73
 -12  -2 -10    4.79    3.07
 -12  -2 -10    0.61    3.22
 -12  -2 -11    6.82    3.94
  12   4 -12    3.93    3.14
 -12  -4  12    2.21    2.68
  12   4 -11    1.69    4.04
 -12  -4  11    2.84    2.45
  12   4 -10   -0.83    2.72
 -12  -4  10   -1.55    2.34
  12   4  -9    0.67    2.47
 -12  -4   9   -1.87    2.20
  12   4  -8    1.46    3.14
 -12  -4   8    2.41    2.23
  12   4  -7    4.96    2.18
 -12  -4   7    4.34    2.37
  12   4  -6    5.45    2.11
 -12  -4   6    3.81    3.06
  12   4  -5    2.68    2.08
 -12  -4   5    2.06    1.97
  12   4  -4    4.62    1.93
 -12  -4   4    2.59    2.22
  12   4  -3    6.26    2.14
 -12  -4   3    7.30    2.16
  12   4  -2   10.06    2.55
 -12  -4   2   11.88    2.56
  12   4  -1   16.52    2.77
 -12  -4   1   16.27    2.88
  12   4   0    6.00    3.35
 -12  -4   0   10.94    2.59
  12   4   1    4.36    2.22
 -12  -4  -1    4.10    2.18
 -12  -4  -2    3.61    2.15
 -12  -4  -3   -0.28    2.08
 -12  -4  -4    2.89    1.21
 -12  -4  -4    1.00    1.98
 -12  -4  -5    0.96    0.62
 -12  -4  -5    0.69    1.99
 -12  -4  -6    0.76    0.58
 -12  -4  -6    2.14    2.17
 -12  -4  -7    3.17    2.42
 -12  -4  -8    4.83    3.21
 -12  -4  -8    3.20    2.67
 -12  -4  -9   -0.51    3.16
 -12  -4  -9    3.10    2.94
 -12  -4 -10    4.00    3.24
 -12  -4 -10    1.85    3.33
  12   6 -12    1.53    2.86
 -12  -6  12    2.73    2.49
  12   6 -11    4.22    2.80
 -12  -6  11    3.61    2.36
  12   6 -10   11.16    3.51
 -12  -6  10    0.72    2.32
  12   6  -9    3.63    2.45
 -12  -6   9    5.64    2.30
  12   6  -8    8.36    3.14
 -12  -6   8    5.68    3.24
  12   6  -7   12.60    2.64
 -12  -6   7   17.10    3.67
  12   6  -6   13.60    3.61
 -12  -6   6   16.15    2.78
  12   6  -5   15.22    2.42
 -12  -6   5   14.71    2.74
  12   6  -4   17.18    2.58
 -12  -6   4   12.58    2.74
  12   6  -3   24.94    3.10
 -12  -6   3   22.86    3.05
  12   6  -2   30.08    3.45
 -12  -6   2   36.20    3.82
  12   6  -1   40.32    5.67
 -12  -6   1   49.36    4.62
  12   6   0   35.14    3.86
 -12  -6   0   38.75    4.18
 -12  -6  -1   17.06    2.87
 -12  -6  -2   10.56    2.56
 -12  -6  -3    3.68    2.00
 -12  -6  -4    7.57    1.14
 -12  -6  -4    4.60    2.18
 -12  -6  -5    5.58    2.30
 -12  -6  -6    4.41    3.10
 -12  -6  -7    3.87    2.01
 -12  -6  -7    3.75    2.48
 -12  -6  -8    0.74    3.15
 -12  -6  -8    2.01    2.51
 -12  -6  -9    2.22    3.21
 -12  -6  -9    0.25    2.94
 -12  -6 -10    2.94    3.16
 -12  -6 -10   -0.47    3.54
  12   8 -12   -1.21    2.44
 -12  -8  12    2.44    2.21
  12   8 -11    4.45    2.23
 -12  -8  11   -0.08    2.11
  12   8 -10    2.53    2.68
 -12  -8  10   -0.57    1.99
  12   8  -9    1.05    1.91
 -12  -8   9    1.36    2.61
  12   8  -8    1.63    2.71
 -12  -8   8    5.25    2.75
  12   8  -7    2.58    1.90
 -12  -8   7    2.42    2.01
  12   8  -6   -1.11    2.32
 -12  -8   6    3.93    1.80
  12   8  -5   -0.13    1.74
 -12  -8   5   -1.44    2.57
  12   8  -4   -0.65    1.66
  12   8  -3    3.77    1.81
 -12  -8   3    4.07    2.12
  12   8  -2    3.39    2.59
 -12  -8   2    4.60    2.16
  12   8  -1   -0.51    1.79
 -12  -8   1    1.85    1.96
 -12  -8   0   -3.32    1.95
 -12  -8  -1    0.63    1.89
 -12  -8  -2   -3.06    1.96
 -12  -8  -3   -3.43    2.41
 -12  -8  -4    0.62    0.71
 -12  -8  -4    1.21    1.79
 -12  -8  -5    1.09    1.88
 -12  -8  -6   -0.74    1.83
 -12  -8  -6   -3.04    2.98
 -12  -8  -7    1.43    3.18
 -12  -8  -7    1.34    3.07
 -12  -8  -8    1.68    3.15
 -12  -8  -8   -0.06    3.21
 -12  -8  -9    1.93    3.25
 -12  -8  -9   -1.37    3.36
 -12  -8 -10   -4.81    3.52
 -12  -8 -10   -2.91    3.93
  12  10 -11    1.56    1.76
 -12 -10  11   -0.94    1.87
  12  10 -10    3.09    2.17
 -12 -10  10   -0.98    1.85
  12  10  -9    1.04    1.39
 -12 -10   9   -4.81    2.43
  12  10  -8    0.53    1.85
 -12 -10   8   -0.13    2.39
  12  10  -7    2.44    1.59
 -12 -10   7    2.82    1.86
  12  10  -6    1.94    1.55
 -12 -10   6   -2.52    2.27
  12  10  -5    3.08    1.60
 -12 -10   5    4.64    2.03
  12  10  -4    4.97    1.74
 -12 -10   4    4.22    1.92
  12  10  -3    6.43    1.87
 -12 -10   2    5.10    2.15
 -12 -10   1    8.83    2.30
 -12 -10   0    3.05    1.85
 -12 -10  -1    7.51    2.72
 -12 -10  -2    2.85    1.62
 -12 -10  -3   -1.84    1.53
 -12 -10  -4    2.42    2.61
 -12 -10  -5   -4.35    2.97
 -12 -10  -6    7.15    3.18
 -12 -10  -6    0.06    3.16
 -12 -10  -7    0.32    3.10
 -12 -10  -7   -1.03    3.07
 -12 -10  -8    0.22    3.17
 -12 -10  -9    3.20    3.45
 -12 -10  -9    3.38    3.75
 -12 -10 -10   -0.47    3.36
 -12 -10 -10    1.01    3.80
  12  12 -11    2.42    1.12
 -12 -12  11    5.09    2.48
  12  12 -10    2.52    1.00
 -12 -12  10    4.28    1.84
  12  12  -9    5.34    1.72
 -12 -12   9    4.73    2.57
  12  12  -8    9.87    2.14
 -12 -12   8    8.09    2.08
  12  12  -7   16.46    1.97
 -12 -12   7   17.80    3.23
  12  12  -6   20.61    2.24
  12  12  -5   21.35    3.43
 -12 -12   5   26.82    2.99
  12  12  -4   25.13    2.75
 -12 -12   3   36.51    3.73
 -12 -12   2   50.39    4.59
 -12 -12   1   70.38    5.36
 -12 -12   0   51.67    4.29
 -12 -12  -1   28.82    2.98
 -12 -12  -2   13.66    2.71
 -12 -12  -3    7.65    0.70
 -12 -12  -3    9.96    2.94
 -12 -12  -4   14.56    3.71
 -12 -12  -5   14.40    3.92
 -12 -12  -5   10.84    3.70
 -12 -12  -6    4.60    3.59
 -12 -12  -6    7.00    3.48
 -12 -12  -7    2.74    3.51
 -12 -12  -7    3.62    3.52
 -12 -12  -8    3.90    3.70
 -12 -12  -8    5.59    3.94
 -12 -12  -9    9.69    4.00
 -12 -12  -9    5.44    4.41
  12  14 -10    1.90    1.91
 -12 -14  10   -2.31    1.57
  12  14  -9   -0.37    1.93
 -12 -14   9    1.81    2.03
  12  14  -8    3.03    1.61
 -12 -14   8    3.24    1.63
  12  14  -7    3.65    2.16
 -12 -14   7   -0.72    2.12
  12  14  -6    2.79    1.69
 -12 -14   6    2.10    1.56
 -12 -14   5    3.56    2.46
 -12 -14   4    4.85    1.79
 -12 -14   3    3.44    1.85
 -12 -14   2    3.96    2.45
 -12 -14   1    2.55    2.10
 -12 -14   0    3.90    2.04
 -12 -14  -1    1.86    1.21
 -12 -14  -1    3.15    1.92
 -12 -14  -2    2.40    0.90
 -12 -14  -2   -1.32    2.11
 -12 -14  -3    0.51    0.63
 -12 -14  -3    7.55    3.42
 -12 -14  -4   11.75    3.39
 -12 -14  -4    5.07    3.07
 -12 -14  -5    9.20    3.61
 -12 -14  -5    9.15    3.60
 -12 -14  -6   10.99    3.58
 -12 -14  -6   -1.27    3.43
 -12 -14  -7    0.79    3.44
 -12 -14  -7    4.35    3.66
 -12 -14  -8    9.71    4.93
 -12 -14  -8    0.84    4.06
 -12 -14  -9    1.45    3.76
 -12 -14  -9    5.86    4.14
  12  16 -10    0.81    2.15
 -12 -16  10    1.81    1.91
  12  16  -9    1.61    1.69
 -12 -16   9    2.71    1.87
 -12 -16   8    1.33    1.85
 -12 -16   7    5.02    2.07
 -12 -16   6    2.64    1.58
 -12 -16   5    4.47    2.31
 -12 -16   4    3.59    1.74
 -12 -16   3    1.79    2.14
 -12 -16   2    3.38    1.55
 -12 -16   1    4.29    1.26
 -12 -16   1    3.73    1.93
 -12 -16   0    2.81    1.54
 -12 -16   0    3.51    2.08
 -12 -16  -1    1.93    1.27
 -12 -16  -1   -2.37    2.63
 -12 -16  -2    1.24    0.89
 -12 -16  -2    3.39    1.64
 -12 -16  -2   -0.08    2.34
 -12 -16  -3    8.43    3.05
 -12 -16  -3    0.97    2.73
 -12 -16  -4    4.27    3.27
 -12 -16  -4    6.92    2.99
 -12 -16  -5   -0.29    3.18
 -12 -16  -5    3.09    2.94
 -12 -16  -6    1.79    3.38
 -12 -16  -6    4.12    3.41
 -12 -16  -7    3.35    3.57
 -12 -16  -7    6.13    3.83
 -12 -16  -8   -0.63    3.50
 -12 -16  -8    3.32    3.76
 -12 -18   9   -0.50    3.17
 -12 -18   9    2.43    1.64
 -12 -18   8    2.85    2.94
 -12 -18   8    1.54    1.65
 -12 -18   7   -0.10    2.66
 -12 -18   7    2.83    1.69
 -12 -18   6   -2.88    2.30
 -12 -18   6    1.33    1.79
 -12 -18   5   -0.07    1.96
 -12 -18   5    0.92    1.88
 -12 -18   4   -2.43    1.89
 -12 -18   4   -0.18    1.95
 -12 -18   3   -2.44    1.62
 -12 -18   3    1.32    1.79
 -12 -18   2   -0.23    1.47
 -12 -18   2    3.34    1.82
 -12 -18   1   -4.28    1.87
 -12 -18   1    0.70    1.87
 -12 -18   0    0.30    1.29
 -12 -18   0    1.18    1.97
 -12 -18  -1   -0.57    1.18
 -12 -18  -1    0.07    1.53
 -12 -18  -1    2.81    1.92
 -12 -18  -2   10.40    4.07
 -12 -18  -2    4.00    2.65
 -12 -18  -3    1.29    0.80
 -12 -18  -3    0.28    2.87
 -12 -18  -3    0.08    2.57
 -12 -18  -4    6.22    4.25
 -12 -18  -4    1.96    2.87
 -12 -18  -5    4.91    3.40
 -12 -18  -6    6.73    4.93
 -12 -18  -6    7.87    3.85
 -12 -18  -7    6.82    3.54
 -12 -18  -7   -0.49    3.81
 -12 -20   8    9.30    4.54
 -12 -20   8    1.25    1.39
 -12 -20   7    2.84    4.06
 -12 -20   7    1.24    1.46
 -12 -20   6    2.69    2.67
 -12 -20   6    1.56    1.63
 -12 -20   5    2.63    2.38
 -12 -20   5    2.61    1.29
 -12 -20   4    0.76    2.11
 -12 -20   4    2.17    2.23
 -12 -20   3    2.84    2.73
 -12 -20   3    4.31    1.91
 -12 -20   2    1.37    1.97
 -12 -20   2    5.27    1.96
 -12 -20   1   -0.11    2.18
 -12 -20   1    1.71    1.41
 -12 -20   1    4.48    2.08
 -12 -20   0    3.03    1.64
 -12 -20   0    8.53    3.34
 -12 -20   0   -0.56    1.98
 -12 -20  -1    2.15    1.33
 -12 -20  -1    3.67    2.69
 -12 -20  -1    4.01    2.10
 -12 -20  -2    7.74    3.06
 -12 -20  -2    5.25    3.63
 -12 -20  -3    4.65    3.13
 -12 -20  -3    5.97    2.72
 -12 -20  -4    8.38    3.33
 -12 -20  -4    4.21    4.19
 -12 -20  -5    0.67    3.25
 -12 -20  -5    4.10    3.14
 -12 -20  -6    4.14    3.44
 -12 -20  -6    0.48    3.55
 -12 -22   7    5.56    3.53
 -12 -22   7    2.25    1.23
 -12 -22   6    8.16    4.42
 -12 -22   6    1.78    1.92
 -12 -22   5    5.06    2.76
 -12 -22   5    0.17    1.06
 -12 -22   5    1.37    2.02
 -12 -22   4    2.58    2.40
 -12 -22   4    1.38    1.82
 -12 -22   4    0.87    2.33
 -12 -22   3    4.08    2.92
 -12 -22   3    3.83    2.62
 -12 -22   3    0.91    1.90
 -12 -22   2    3.12    1.94
 -12 -22   2    4.49    2.82
 -12 -22   2    1.39    1.96
 -12 -22   1    0.64    2.02
 -12 -22   1    4.82    2.31
 -12 -22   1    4.93    2.15
 -12 -22   0    1.98    1.72
 -12 -22   0    7.73    2.40
 -12 -22   0    3.08    2.04
 -12 -22  -1    1.55    1.42
 -12 -22  -1    5.59    2.53
 -12 -22  -1    0.27    2.07
 -12 -22  -2    2.31    1.46
 -12 -22  -2    1.75    2.69
 -12 -22  -2    2.10    3.23
 -12 -22  -3   -0.15    3.82
 -12 -22  -3    2.95    2.51
 -12 -22  -4    1.79    2.99
 -12 -22  -4    0.85    3.73
 -12 -22  -5    9.57    3.79
 -12 -24   5    2.90    3.95
 -12 -24   5    3.96    2.18
 -12 -24   4    2.70    2.45
 -12 -24   4    1.83    2.31
 -12 -24   4    0.20    2.33
 -12 -24   3    2.50    2.00
 -12 -24   3    3.03    2.49
 -12 -24   3    1.86    1.88
 -12 -24   2    3.02    1.78
 -12 -24   2    0.98    1.93
 -12 -24   2    2.34    1.93
 -12 -24   1   -0.29    2.03
 -12 -24   1    0.74    2.09
 -12 -24   1    4.87    2.04
 -12 -24   0    1.49    1.79
 -12 -24   0    1.72    2.16
 -12 -24   0    1.91    1.90
 -12 -24  -1   -0.33    1.42
 -12 -24  -1    4.97    3.07
 -12 -24  -1   -0.29    1.98
 -12 -24  -2    3.44    1.40
 -12 -24  -2    1.52    2.68
 -12 -24  -3    1.63    2.84
 -12 -24  -3    2.27    2.51
 -12 -26   0    3.28    1.41
 -13  23   5    8.52    5.68
 -13  23   5    6.09    3.86
  13 -23  -4    7.23    4.39
 -13  23   4    7.10    5.07
 -13  23   4    6.10    3.67
  13 -23  -3    5.49    4.01
 -13  23   3    8.54    4.61
 -13  23   3    3.09    3.38
  13 -23  -2    6.00    3.71
 -13  23   2    1.59    4.15
 -13  23   2    3.40    2.91
  13 -23  -1    3.86    3.23
 -13  23   1   -2.89    2.41
  13 -23   0    0.92    3.88
 -13  23   0   -3.46    2.21
  13 -23   1    3.08    2.70
 -13  23  -1    0.43    1.91
  13 -23   2    0.66    2.29
 -13  23  -2    0.98    1.83
 -13  23  -3    1.94    2.59
 -13  21   7    7.11    4.17
  13 -21  -6    7.51    3.60
 -13  21   6    3.26    3.79
  13 -21  -5   -2.93    3.59
 -13  21   5   -0.90    3.50
  13 -21  -4    4.48    3.47
 -13  21   4   -2.20    4.77
 -13  21   4   -1.12    3.15
  13 -21  -3    0.01    3.43
 -13  21   3    1.15    4.23
 -13  21   3    3.26    3.96
  13 -21  -2    3.44    3.20
 -13  21   2   -6.98    3.80
 -13  21   2    0.90    2.57
  13 -21  -1   -5.91    3.24
 -13  21   1   -2.30    3.90
 -13  21   1   -1.35    3.43
  13 -21   0    1.57    3.53
 -13  21   0   -0.26    2.10
  13 -21   1    6.74    3.49
 -13  21  -1   -1.72    2.72
  13 -21   2    0.88    3.05
 -13  21  -2    0.91    1.91
  13 -21   3    3.72    3.36
 -13  21  -3    2.30    2.79
  13 -21   4    0.74    2.95
 -13  21  -4    1.92    2.16
  13 -19  -8    7.61    3.37
 -13  19   8    7.19    4.28
  13 -19  -7    3.58    3.22
 -13  19   7    5.28    3.85
  13 -19  -6   -2.96    3.14
 -13  19   6   -1.29    3.65
  13 -19  -5    1.34    3.27
 -13  19   5   -0.08    3.34
  13 -19  -4    2.60    3.49
 -13  19   4    3.56    3.26
  13 -19  -3    5.02    3.55
 -13  19   3    5.84    4.94
 -13  19   3    4.01    3.12
  13 -19  -2    4.54    3.48
 -13  19   2   10.82    4.37
 -13  19   2    3.32    2.95
  13 -19  -1   15.23    3.53
 -13  19   1    2.55    4.24
 -13  19   1    6.75    2.88
  13 -19   0    5.75    2.89
 -13  19   0    5.17    2.45
  13 -19   1    8.20    3.88
 -13  19  -1    5.87    2.36
  13 -19   2    2.77    3.14
 -13  19  -2    1.27    2.08
  13 -19   3    4.77    3.68
 -13  19  -3    6.32    3.10
  13 -19   4    8.58    2.60
 -13  19  -4    4.80    2.44
  13 -19   5    5.69    2.46
 -13  19  -6   -1.38    2.14
  13 -17  -9    4.41    3.30
 -13  17   9    7.33    4.16
  13 -17  -8    9.09    3.36
 -13  17   8   10.06    4.36
  13 -17  -7    0.57    2.87
 -13  17   7    4.79    3.71
  13 -17  -6    8.41    3.41
 -13  17   6    9.42    4.12
  13 -17  -5   10.10    3.57
 -13  17   5    4.84    5.15
  13 -17  -4    6.98    3.27
 -13  17   4   -0.01    3.16
  13 -17  -3    4.84    4.64
 -13  17   3    7.43    3.29
  13 -17  -2    7.39    3.49
 -13  17   2   13.51    5.09
 -13  17   2    8.20    3.10
 -13  17   1   11.56    4.37
 -13  17   1    8.50    2.89
  13 -17   0    7.73    2.93
 -13  17   0    1.97    3.91
 -13  17   0    9.71    2.59
  13 -17   1    5.59    3.04
 -13  17  -1   10.69    3.89
 -13  17  -1    9.48    2.43
  13 -17   2    8.92    2.68
 -13  17  -2    6.68    2.37
  13 -17   3    4.71    2.87
 -13  17  -3    8.33    2.23
  13 -17   4    5.43    2.67
 -13  17  -4    6.52    2.30
  13 -17   5    4.66    2.51
 -13  17  -5    3.76    2.52
 -13  17  -7    4.89    2.69
 -13  15  10   -0.11    3.71
  13 -15  -9    3.77    2.98
 -13  15   9    2.31    3.75
  13 -15  -8   -2.18    2.71
 -13  15   8   -2.21    3.78
  13 -15  -7    0.24    2.74
 -13  15   7    6.34    3.63
  13 -15  -6    3.57    2.95
 -13  15   6    8.15    3.67
 -13  15   5    4.25    3.34
  13 -15  -4    8.15    3.41
 -13  15   4   11.68    3.58
  13 -15  -3    2.38    2.96
 -13  15   3    5.25    2.97
  13 -15  -2   15.76    3.73
 -13  15   2   15.95    3.53
  13 -15  -1   22.51    3.92
 -13  15   1   32.31    6.08
 -13  15   1   21.21    3.78
  13 -15   0   16.46    3.30
 -13  15   0   16.76    4.37
 -13  15   0   12.43    2.97
  13 -15   1    7.69    2.95
 -13  15  -1   10.35    3.52
 -13  15  -1    5.63    2.23
  13 -15   2    3.64    2.59
 -13  15  -2    7.01    2.17
  13 -15   3    5.77    2.97
 -13  15  -3    7.99    2.53
 -13  15  -4    6.36    2.65
  13 -15   5    3.95    2.62
 -13  15  -6    0.40    3.01
 -13  15  -6    4.86    3.56
 -13  15  -7    8.39    3.45
 -13  15  -7    3.89    2.66
  13 -13 -10    5.97    3.19
 -13  13  10    4.57    3.95
  13 -13  -9    6.05    2.78
 -13  13   9    0.06    3.79
  13 -13  -8    6.07    2.90
 -13  13   7    5.47    3.81
  13 -13  -6    7.71    3.21
 -13  13   6    6.35    3.80
  13 -13  -5   10.65    3.59
 -13  13   5   14.79    3.95
  13 -13  -4   11.39    3.65
 -13  13   4   18.32    3.93
  13 -13  -3   27.37    4.40
 -13  13   3   25.32    4.48
  13 -13  -2   42.31    5.44
 -13  13   2   41.33    5.12
  13 -13  -1   57.54    5.84
 -13  13   1   48.17    7.30
  13 -13   0   48.65    5.17
 -13  13   0   46.82    7.02
 -13  13   0   34.48    4.16
  13 -13   1   26.33    3.63
 -13  13  -1   20.79    4.69
 -13  13  -1   22.23    3.11
 -13  13  -2   21.36    4.33
 -13  13  -2   20.49    4.40
 -13  13  -3   24.50    5.22
  13 -13   4   18.54    3.72
 -13  13  -4   17.41    3.53
 -13  13  -5   13.97    3.15
 -13  13  -7    3.68    3.02
 -13  13  -7    4.32    2.71
 -13  13  -8   -2.05    2.52
 -13  13  -8    2.89    2.66
  13 -11 -11    2.15    3.04
 -13  11  11   -1.31    3.66
  13 -11 -10   -0.45    2.90
 -13  11  10    3.06    3.48
  13 -11  -9    3.13    2.61
 -13  11   9   -0.40    3.57
  13 -11  -8    4.32    2.71
 -13  11   8    3.37    3.63
  13 -11  -7    4.91    2.78
 -13  11   7    7.08    3.54
  13 -11  -6   13.48    3.54
 -13  11   6   17.08    4.18
  13 -11  -5    1.14    2.61
 -13  11   5    4.45    3.05
  13 -11  -4    3.60    2.55
 -13  11   4    2.59    2.91
  13 -11  -3    6.70    2.90
 -13  11   3   11.62    3.09
  13 -11  -2   12.57    2.79
 -13  11   2   -1.00    3.75
  13 -11  -1    4.14    2.40
 -13  11   1    3.55    2.19
  13 -11   0   10.68    2.94
 -13  11   0   10.31    2.39
 -13  11  -1   10.67    3.57
 -13  11  -1   11.93    2.68
 -13  11  -2    5.71    2.87
 -13  11  -2    4.80    2.48
 -13  11  -5    5.98    2.93
 -13  11  -6    5.71    4.00
 -13  11  -7    2.90    2.78
 -13  11  -8   -2.73    2.15
 -13  11  -8    1.57    2.62
  13  -9 -11   -0.75    2.83
 -13   9  11    1.63    3.38
  13  -9 -10    3.67    2.75
 -13   9  10   -1.09    3.28
  13  -9  -9   -4.62    3.60
 -13   9   9   -0.44    3.36
  13  -9  -8    3.15    2.50
 -13   9   8   -0.99    3.22
  13  -9  -7    2.19    2.64
 -13   9   7    1.68    3.15
  13  -9  -6    6.20    2.69
 -13   9   6    1.43    3.15
  13  -9  -5    1.84    2.40
 -13   9   5    0.17    2.77
  13  -9  -4    2.89    2.40
 -13   9   4    2.94    2.74
  13  -9  -3    2.20    2.34
 -13   9   3    1.95    2.47
  13  -9  -2    8.90    2.39
 -13   9   2    2.01    2.32
  13  -9  -1   11.77    2.85
 -13   9   1   10.72    2.49
  13  -9   0   -0.52    2.49
 -13   9   0    4.72    2.24
  13  -9   1    2.15    2.37
 -13   9  -1    2.49    3.19
 -13   9  -1    5.51    2.34
 -13   9  -2    1.44    2.43
 -13   9  -3    7.42    2.61
 -13   9  -4    5.44    2.26
 -13   9  -4    1.27    2.72
 -13   9  -5    1.03    2.65
 -13   9  -6    1.00    2.05
 -13   9  -6   -3.65    2.62
 -13   9  -7   -0.67    2.54
 -13   9  -8    1.96    1.98
 -13   9  -8    3.24    2.65
 -13   9  -9    0.82    2.09
 -13   9  -9    3.14    2.59
  13  -7 -11    2.35    3.11
 -13   7  11    4.96    3.46
  13  -7 -10    4.49    3.97
 -13   7  10    2.37    3.46
  13  -7  -9    6.94    2.84
 -13   7   9    0.31    3.39
  13  -7  -8    1.01    2.95
 -13   7   8    8.55    3.30
  13  -7  -7    8.35    3.07
 -13   7   7    5.98    3.36
  13  -7  -6    0.53    2.74
 -13   7   6    9.52    3.09
  13  -7  -5    8.72    2.76
 -13   7   5    7.39    3.22
  13  -7  -4   10.94    2.91
 -13   7   4   15.36    3.30
  13  -7  -3   12.27    2.97
 -13   7   3   16.74    3.17
  13  -7  -2   22.52    3.24
 -13   7   2   18.69    3.09
  13  -7  -1   26.78    5.45
 -13   7   1   33.75    3.95
  13  -7   0   18.64    3.40
 -13   7   0   26.41    3.52
  13  -7   1   19.24    3.73
 -13   7  -1   21.98    3.16
  13  -7   2   21.71    3.44
 -13   7  -2   11.86    3.32
 -13   7  -2   17.52    3.14
  13  -7   3   15.76    3.37
 -13   7  -3    9.27    3.69
  13  -7   4    9.60    3.18
 -13   7  -4   11.63    2.99
 -13   7  -4    8.28    3.20
 -13   7  -5    7.90    2.26
 -13   7  -5    6.64    3.05
 -13   7  -6    5.60    2.92
 -13   7  -7    2.99    3.59
 -13   7  -8    3.44    2.66
 -13   7  -9    2.71    1.42
 -13   7  -9    3.11    2.47
 -13   5  12    2.58    3.50
  13  -5 -11   -1.05    3.06
 -13   5  11    2.44    4.14
  13  -5 -10    3.31    2.97
 -13   5  10    0.75    3.21
  13  -5  -9   -1.22    3.11
 -13   5   9   -4.37    3.13
  13  -5  -8    4.02    4.24
 -13   5   8    4.74    3.14
  13  -5  -7    2.21    2.57
 -13   5   7   -3.43    2.80
  13  -5  -6    2.28    2.38
 -13   5   6   -3.40    2.67
  13  -5  -5    1.84    2.20
 -13   5   5   -3.50    2.55
  13  -5  -4    1.79    2.09
 -13   5   4   -1.81    2.34
  13  -5  -3   -0.37    2.09
 -13   5   3   -4.25    2.15
  13  -5  -2   -5.17    2.20
 -13   5   2    3.30    2.23
  13  -5  -1    1.57    2.31
 -13   5   1   -2.26    2.19
  13  -5   0    1.38    2.27
 -13   5   0    2.65    2.16
  13  -5   1   -0.44    2.54
 -13   5  -1    2.96    2.18
  13  -5   2   -0.30    2.41
 -13   5  -2   -4.00    2.48
 -13   5  -2    0.95    2.47
  13  -5   3   -0.21    2.62
 -13   5  -3    2.09    1.97
 -13   5  -3    4.49    2.62
 -13   5  -4    1.86    2.81
 -13   5  -4   -2.01    2.52
 -13   5  -5    0.54    1.66
 -13   5  -5   -3.80    2.61
 -13   5  -6    1.25    2.58
 -13   5  -7    3.73    2.47
 -13   5  -8    3.34    3.27
 -13   5  -9    0.03    2.28
 -13   5 -10   -3.87    2.65
  13  -3 -12    1.49    3.53
 -13   3  12    5.72    3.42
  13  -3 -11    0.17    3.46
 -13   3  11    4.67    3.09
  13  -3 -10    2.34    3.21
 -13   3  10    0.55    3.06
  13  -3  -9    2.47    3.24
 -13   3   9    8.54    4.18
  13  -3  -8    8.65    3.24
 -13   3   8    6.73    3.20
  13  -3  -7    8.24    2.95
 -13   3   7    6.01    3.12
  13  -3  -6    4.76    2.57
 -13   3   6    6.09    2.90
  13  -3  -5    2.61    2.22
 -13   3   5    1.24    2.51
  13  -3  -4    2.31    2.06
 -13   3   4    2.60    2.20
  13  -3  -3    6.38    2.26
 -13   3   3    5.60    2.55
  13  -3  -2    7.27    2.79
 -13   3   2   13.38    2.75
 -13   3   1   21.97    3.46
  13  -3   0   16.67    3.25
 -13   3   0   12.70    2.90
  13  -3   1    5.20    2.64
  13  -3   2    6.38    2.84
 -13   3  -2    5.84    2.74
  13  -3   3    8.05    2.79
 -13   3  -3    3.39    1.97
 -13   3  -3    6.27    2.79
 -13   3  -4    3.50    2.68
 -13   3  -4    4.56    2.79
 -13   3  -5    2.88    1.51
 -13   3  -5    3.44    2.56
 -13   3  -6    1.51    3.29
 -13   3  -7    6.65    2.65
 -13   3  -8    0.67    2.44
 -13   3  -9    1.49    1.85
 -13   3  -9    0.34    3.43
 -13   3 -10    6.66    3.84
 -13   3 -10   -2.53    2.65
  13  -1 -12   -0.11    3.59
 -13   1  12    2.76    3.01
  13  -1 -11   10.49    4.89
 -13   1  11    2.37    3.09
  13  -1 -10    1.10    3.24
 -13   1  10    3.78    2.97
  13  -1  -9    2.06    3.15
 -13   1   9    5.51    2.94
  13  -1  -8   -1.33    3.90
 -13   1   8    3.86    2.72
  13  -1  -7    6.17    2.73
 -13   1   7    2.27    2.84
  13  -1  -6    2.56    3.36
 -13   1   6    6.05    2.73
  13  -1  -5    2.55    2.16
 -13   1   5    4.67    2.48
  13  -1  -4    4.35    2.30
 -13   1   4    9.65    2.40
 -13   1   3    4.34    2.49
  13  -1  -2   14.16    2.83
 -13   1   2   16.63    3.10
  13  -1  -1   23.71    3.84
 -13   1   1   28.58    3.52
 -13   1   0   20.67    3.58
  13  -1   1    6.17    2.76
 -13   1  -1    7.44    2.79
  13  -1   2    6.78    2.82
 -13   1  -3    4.02    2.42
 -13   1  -3    0.00    2.63
 -13   1  -4    3.42    1.73
 -13   1  -4    4.84    2.55
 -13   1  -5    3.42    2.54
 -13   1  -6    0.08    0.79
 -13   1  -6    2.31    2.44
 -13   1  -7    0.15    1.26
 -13   1  -7    0.26    3.23
 -13   1  -8   -0.05    2.43
 -13   1  -9   -0.58    1.90
 -13   1  -9   -2.15    2.37
 -13   1 -10    1.70    3.04
 -13   1 -10   -0.29    2.58
  13   1 -12   -0.12    3.36
 -13  -1  12   -0.41    2.81
  13   1 -11    0.81    3.53
 -13  -1  11    6.93    3.02
  13   1 -10   -1.76    3.09
 -13  -1  10    3.39    2.68
  13   1  -9   -2.18    2.95
 -13  -1   9   -0.45    2.59
  13   1  -8    0.70    2.62
 -13  -1   8    0.72    2.52
  13   1  -7    5.65    2.62
 -13  -1   7    3.25    2.69
  13   1  -6    5.08    2.31
 -13  -1   6    4.09    2.60
  13   1  -5    9.21    2.32
 -13  -1   5    4.48    2.38
  13   1  -4   -1.24    2.21
 -13  -1   4    5.64    2.33
  13   1  -3    5.01    2.32
 -13  -1   3    9.24    2.54
 -13  -1   2   12.98    2.77
  13   1  -1   21.56    3.82
 -13  -1   1   25.22    3.72
  13   1   0   11.54    3.04
 -13  -1   0   14.03    3.09
  13   1   1    8.62    3.73
 -13  -1  -1    6.16    2.77
  13   1   2    2.65    2.58
 -13  -1  -2    4.60    2.59
 -13  -1  -3    0.88    2.30
 -13  -1  -4    3.55    1.78
 -13  -1  -4    5.20    2.49
 -13  -1  -5    0.71    1.28
 -13  -1  -5    3.68    2.43
 -13  -1  -6    2.48    2.51
 -13  -1  -7    2.25    2.26
 -13  -1  -8    1.74    2.32
 -13  -1  -9    1.67    3.25
 -13  -1  -9    2.07    2.52
 -13  -1 -10    5.89    3.58
 -13  -1 -10    7.25    3.14
  13   3 -12    2.36    4.34
 -13  -3  12   -0.09    2.65
  13   3 -11    1.82    3.12
 -13  -3  11    0.56    2.66
  13   3 -10    4.85    3.10
 -13  -3  10    3.11    2.70
  13   3  -9   -1.79    2.70
 -13  -3   9   -0.41    2.47
  13   3  -8    3.67    2.54
 -13  -3   8   -0.56    2.44
  13   3  -7    4.55    2.36
 -13  -3   7    3.83    2.61
  13   3  -6    5.49    2.32
 -13  -3   6    5.68    3.43
  13   3  -5    4.63    3.16
 -13  -3   5    3.75    2.21
  13   3  -4    3.71    2.10
 -13  -3   4    1.91    2.33
  13   3  -3    8.31    2.33
 -13  -3   3    4.81    2.53
  13   3  -2   16.21    3.13
 -13  -3   2   14.25    2.85
  13   3  -1   23.06    3.34
 -13  -3   1   17.56    3.48
  13   3   0    7.77    3.03
 -13  -3   0   17.64    3.05
  13   3   1   -0.15    2.39
 -13  -3  -1    3.90    2.51
 -13  -3  -2   -0.78    2.25
 -13  -3  -3    1.73    2.32
 -13  -3  -4    1.19    1.45
 -13  -3  -4    3.37    2.38
 -13  -3  -5    0.50    0.96
 -13  -3  -5    5.36    2.41
 -13  -3  -6    0.89    0.86
 -13  -3  -6    0.13    2.15
 -13  -3  -7    1.60    2.28
 -13  -3  -8   -0.54    2.09
 -13  -3  -8    7.37    2.48
 -13  -3  -9   -0.83    3.33
 -13  -3  -9    3.24    2.87
 -13  -3 -10    1.83    3.26
 -13  -3 -10   -2.28    3.24
 -13  -5  12    4.10    2.71
  13   5 -11   -1.80    3.97
 -13  -5  11   -1.48    2.52
  13   5 -10   -3.87    2.78
 -13  -5  10    0.26    3.28
  13   5  -9    1.47    2.31
 -13  -5   9   -3.56    3.06
  13   5  -8   -0.92    3.00
 -13  -5   8    3.99    3.07
  13   5  -7   -1.20    2.21
 -13  -5   7   -1.94    2.29
  13   5  -6   -1.30    2.20
 -13  -5   6   -1.30    2.18
  13   5  -5    5.04    2.09
 -13  -5   5    2.26    2.33
  13   5  -4   -0.48    1.97
 -13  -5   4   -0.55    2.15
  13   5  -3    4.34    2.40
 -13  -5   3    4.04    2.19
  13   5  -2    2.78    2.16
 -13  -5   2   -0.17    2.28
  13   5  -1    5.45    2.33
 -13  -5   1   -0.43    2.39
  13   5   0    1.92    2.21
 -13  -5   0   -1.19    2.28
 -13  -5  -1   -1.02    2.32
 -13  -5  -2   -0.69    2.15
 -13  -5  -3   -0.79    2.26
 -13  -5  -4    1.08    1.13
 -13  -5  -4   -3.76    2.18
 -13  -5  -5    0.55    0.60
 -13  -5  -5   -4.51    2.10
 -13  -5  -6    0.69    2.11
 -13  -5  -7    0.18    2.38
 -13  -5  -8    6.51    3.51
 -13  -5  -8    1.24    2.83
 -13  -5  -9    0.03    3.49
 -13  -5  -9    2.93    4.15
 -13  -5 -10    5.74    3.98
  13   7 -11    3.98    2.66
 -13  -7  11    4.26    3.35
  13   7 -10    2.27    3.15
 -13  -7  10    1.54    3.09
  13   7  -9   -1.73    2.12
 -13  -7   9    1.62    2.15
  13   7  -8    5.87    3.33
 -13  -7   8    7.00    2.47
  13   7  -7   10.15    2.56
 -13  -7   7    6.39    2.59
  13   7  -6    6.06    3.17
 -13  -7   6   12.47    2.40
  13   7  -5   11.96    2.65
 -13  -7   5   10.41    3.68
  13   7  -4   14.71    2.87
 -13  -7   4   17.41    3.96
  13   7  -3   16.80    3.72
 -13  -7   3   15.87    2.90
  13   7  -2   25.48    3.41
 -13  -7   2   22.46    3.59
  13   7  -1   37.73    4.16
 -13  -7   1   36.18    4.48
 -13  -7   0   26.05    3.71
 -13  -7  -1   11.60    2.72
 -13  -7  -2    8.85    2.57
 -13  -7  -3    0.87    2.16
 -13  -7  -4    3.33    1.04
 -13  -7  -4    3.51    2.04
 -13  -7  -5    3.84    2.10
 -13  -7  -6    5.43    2.42
 -13  -7  -7    4.23    1.98
 -13  -7  -7   -4.29    2.38
 -13  -7  -8    1.19    3.38
 -13  -7  -8    1.63    2.72
 -13  -7  -9    2.38    3.57
 -13  -7  -9   -8.77    3.86
  13   9 -11    1.61    2.28
 -13  -9  11    5.01    2.99
  13   9 -10   -0.42    2.98
 -13  -9  10    8.51    2.96
  13   9  -9    3.34    2.07
 -13  -9   9    1.90    2.14
  13   9  -8    3.10    2.50
 -13  -9   8    3.30    2.16
  13   9  -7    7.75    2.01
 -13  -9   7    6.98    2.33
  13   9  -6    0.67    2.64
 -13  -9   6    4.72    2.63
  13   9  -5    3.30    1.93
 -13  -9   5    6.52    2.25
  13   9  -4    1.54    1.83
  13   9  -3    7.12    2.69
 -13  -9   3   -0.06    2.19
  13   9  -2    2.84    2.11
 -13  -9   2    4.91    2.32
 -13  -9   1    5.60    2.42
 -13  -9   0    2.62    2.09
 -13  -9  -1    1.92    1.97
 -13  -9  -2   -0.22    2.59
 -13  -9  -3    2.21    1.77
 -13  -9  -4    0.94    0.72
 -13  -9  -4    2.87    1.74
 -13  -9  -5    6.73    3.21
 -13  -9  -6    2.25    1.96
 -13  -9  -6   -0.18    3.18
 -13  -9  -7    2.47    3.34
 -13  -9  -7    1.01    3.48
 -13  -9  -8    1.03    3.35
 -13  -9  -8   -0.92    3.53
 -13  -9  -9    1.75    3.45
 -13  -9  -9   -1.12    3.57
  13  11 -11   -0.92    1.56
 -13 -11  11   -0.35    2.66
  13  11 -10    0.83    1.62
 -13 -11  10   -1.18    2.50
  13  11  -9    1.44    1.32
 -13 -11   9    1.49    1.94
  13  11  -8    3.96    2.16
 -13 -11   8    4.57    2.07
  13  11  -7    1.36    1.59
 -13 -11   7    1.79    2.61
  13  11  -6    6.16    2.39
  13  11  -5    4.56    1.84
  13  11  -4    7.86    1.96
 -13 -11   4    3.52    2.13
  13  11  -3    8.43    2.16
 -13 -11   2    5.38    3.09
 -13 -11   1    7.53    3.11
 -13 -11   0    4.49    1.98
 -13 -11  -1    3.06    1.95
 -13 -11  -2    3.76    1.88
 -13 -11  -3   -1.55    2.27
 -13 -11  -4   -0.47    2.50
 -13 -11  -5    2.31    2.06
 -13 -11  -5    5.59    3.19
 -13 -11  -6    8.65    3.76
 -13 -11  -6    7.50    3.94
 -13 -11  -7    5.83    3.82
 -13 -11  -7    4.57    3.73
 -13 -11  -8    2.29    3.77
 -13 -11  -8    5.77    3.86
 -13 -11  -9    7.83    4.40
  13  13 -10    1.72    1.35
 -13 -13  10    4.68    2.44
  13  13  -9    3.10    1.40
 -13 -13   9    2.71    1.86
  13  13  -8    3.87    2.10
 -13 -13   8    5.86    1.96
  13  13  -7    9.26    1.96
 -13 -13   7    8.67    2.93
  13  13  -6   10.36    2.79
  13  13  -5   13.03    2.35
 -13 -13   5   15.36    2.60
 -13 -13   3   18.57    2.92
 -13 -13   2   26.47    3.25
 -13 -13   1   42.18    4.11
 -13 -13   0   26.79    2.93
 -13 -13  -1   11.81    3.78
 -13 -13  -2    6.09    2.50
 -13 -13  -3    3.05    0.66
 -13 -13  -3    5.21    2.55
 -13 -13  -4    4.80    2.09
 -13 -13  -4   10.00    3.32
 -13 -13  -5   10.32    3.94
 -13 -13  -5    8.99    3.92
 -13 -13  -6    2.87    3.78
 -13 -13  -6    9.09    3.74
 -13 -13  -7    3.19    3.73
 -13 -13  -7    6.34    3.87
 -13 -13  -8    0.29    3.45
 -13 -13  -8   -0.81    4.92
  13  15  -9    4.74    2.46
 -13 -15   9    2.05    1.63
  13  15  -8    2.66    1.82
 -13 -15   8    1.81    1.65
 -13 -15   7    0.48    2.22
 -13 -15   5    7.76    2.85
 -13 -15   4    4.16    1.88
 -13 -15   3    4.00    1.95
 -13 -15   2    8.74    2.09
 -13 -15   1   13.82    2.59
 -13 -15   0   12.88    2.78
 -13 -15  -1    2.05    1.26
 -13 -15  -1    6.24    2.38
 -13 -15  -2   -0.38    0.98
 -13 -15  -2    1.80    2.21
 -13 -15  -3    3.41    1.89
 -13 -15  -3    4.28    2.80
 -13 -15  -4    1.81    3.29
 -13 -15  -4    9.64    4.29
 -13 -15  -5    6.80    3.89
 -13 -15  -5   12.77    3.94
 -13 -15  -6    3.92    3.48
 -13 -15  -6    1.47    3.46
 -13 -15  -7    2.89    3.74
 -13 -15  -7    6.53    5.12
 -13 -17   9    0.63    1.84
 -13 -17   8    1.95    1.47
 -13 -17   7    1.02    1.99
 -13 -17   6    4.70    2.28
 -13 -17   5    6.86    2.52
 -13 -17   4    3.05    1.64
 -13 -17   3    3.35    1.71
 -13 -17   2    1.48    1.50
 -13 -17   2   14.17    2.89
 -13 -17   1    2.36    1.87
 -13 -17   1    4.66    2.12
 -13 -17   0    2.39    1.24
 -13 -17   0    4.45    2.28
 -13 -17  -1    1.97    1.51
 -13 -17  -1    6.63    2.45
 -13 -17  -2   -0.85    0.89
 -13 -17  -2    4.34    1.71
 -13 -17  -2   -1.47    2.23
 -13 -17  -3   10.64    3.67
 -13 -17  -3   10.69    3.34
 -13 -17  -4    5.18    3.32
 -13 -17  -4    1.04    3.17
 -13 -17  -5    7.68    3.95
 -13 -17  -5   10.12    3.76
 -13 -17  -6    3.59    3.73
 -13 -17  -6    5.04    3.69
 -13 -17  -7    0.72    3.56
 -13 -19   8    1.54    1.23
 -13 -19   7    3.89    2.89
 -13 -19   7    3.42    1.82
 -13 -19   6    0.36    2.41
 -13 -19   6    1.70    1.88
 -13 -19   5   -1.69    2.30
 -13 -19   5    3.12    1.96
 -13 -19   4   -0.43    1.91
 -13 -19   4    0.45    1.79
 -13 -19   3    0.80    2.45
 -13 -19   3    4.73    2.77
 -13 -19   2    0.41    1.62
 -13 -19   2    1.03    2.77
 -13 -19   1    2.01    2.12
 -13 -19   1    3.97    2.96
 -13 -19   0    0.11    1.76
 -13 -19   0    0.26    1.58
 -13 -19   0   -0.52    2.99
 -13 -19  -1    0.63    1.21
 -13 -19  -1    2.56    2.70
 -13 -19  -1   -3.08    2.09
 -13 -19  -2    1.04    0.97
 -13 -19  -2    2.72    2.91
 -13 -19  -2    1.62    2.33
 -13 -19  -3    0.99    0.96
 -13 -19  -3    4.38    2.99
 -13 -19  -3    0.00    2.72
 -13 -19  -4    3.10    3.50
 -13 -19  -4    7.73    3.35
 -13 -19  -5    1.33    3.22
 -13 -19  -5    0.36    3.14
 -13 -19  -6    7.29    5.18
 -13 -21   6    0.34    2.67
 -13 -21   6    0.24    1.55
 -13 -21   5   -0.31    2.50
 -13 -21   5    2.91    2.29
 -13 -21   4    0.82    2.15
 -13 -21   4    0.33    1.87
 -13 -21   3    1.22    2.82
 -13 -21   3   -0.53    2.67
 -13 -21   2   -1.67    1.82
 -13 -21   2   -0.04    1.36
 -13 -21   2    0.64    2.79
 -13 -21   1   -1.73    1.59
 -13 -21   1   -0.49    2.34
 -13 -21   1    0.67    2.06
 -13 -21   0    1.71    1.62
 -13 -21   0    0.84    3.46
 -13 -21   0    3.35    3.03
 -13 -21  -1    0.02    0.94
 -13 -21  -1    0.88    2.72
 -13 -21  -1    1.98    2.08
 -13 -21  -2   -0.30    1.03
 -13 -21  -2    3.27    2.84
 -13 -21  -2    2.40    2.25
 -13 -21  -3    1.43    3.36
 -13 -21  -3   10.88    4.02
 -13 -21  -4    4.03    3.31
 -13 -21  -4    4.06    3.21
 -13 -23   4   -3.27    2.45
 -13 -23   4    1.14    2.61
 -13 -23   3   -0.43    2.87
 -13 -23   3   -1.25    2.71
 -13 -23   3    1.41    2.71
 -13 -23   2    0.00    1.64
 -13 -23   2    0.33    2.17
 -13 -23   2    0.01    2.07
 -13 -23   1   -0.09    1.42
 -13 -23   1    0.83    2.29
 -13 -23   1    0.59    2.06
 -13 -23   0    1.75    1.24
 -13 -23   0    3.47    3.43
 -13 -23   0    4.17    3.09
 -13 -23  -1    4.94    2.81
 -13 -23  -1    2.84    2.26
 -13 -23  -2    6.90    2.93
 -13 -23  -2    0.46    2.40
 -14  22   4    7.69    5.28
 -14  22   4    2.64    3.59
  14 -22  -3    8.71    4.20
 -14  22   3    9.82    5.15
 -14  22   3    3.57    3.46
  14 -22  -2    5.13    5.49
 -14  22   2    6.22    4.97
 -14  22   2    8.16    3.18
  14 -22  -1   10.17    3.45
 -14  22   1    5.61    4.58
 -14  22   1    1.29    2.71
  14 -22   0    0.65    3.17
 -14  22   0    6.12    2.45
  14 -22   1    6.47    3.10
 -14  22  -1    3.22    2.37
 -14  22  -2    4.63    2.40
  14 -20  -6    0.45    3.52
 -14  20   6    0.84    3.64
  14 -20  -5    4.47    3.76
 -14  20   5    0.81    3.64
  14 -20  -4   -1.41    3.70
 -14  20   4   12.07    5.61
 -14  20   4    4.09    4.53
  14 -20  -3   -0.37    3.43
 -14  20   3    5.07    4.45
 -14  20   3   -2.18    2.89
  14 -20  -2   -8.53    3.50
 -14  20   2    4.81    4.28
 -14  20   2   -1.68    2.78
  14 -20  -1    1.24    2.95
 -14  20   1   -5.30    4.01
 -14  20   1    3.40    2.47
  14 -20   0    3.98    2.87
 -14  20   0   -2.71    2.28
  14 -20   1   -0.79    2.75
 -14  20  -1    1.59    2.22
  14 -20   2   -2.61    2.48
 -14  20  -2    0.82    3.05
  14 -20   3    3.11    2.79
 -14  20  -3    3.41    2.41
 -14  20  -4    3.48    3.41
  14 -18  -7    9.36    3.62
 -14  18   7    1.61    4.36
  14 -18  -6   -1.25    3.46
 -14  18   6    7.00    3.68
  14 -18  -5    3.02    3.58
 -14  18   5    6.57    4.88
  14 -18  -4    6.32    3.39
 -14  18   4   -0.83    3.24
  14 -18  -3    4.51    3.12
 -14  18   3   -3.60    2.78
  14 -18  -2    4.17    3.28
 -14  18   2    8.13    4.50
 -14  18   2    0.83    2.80
  14 -18  -1    4.12    2.97
 -14  18   1    5.06    4.07
 -14  18   1    2.62    2.61
  14 -18   0    4.15    2.96
 -14  18   0    6.34    3.88
 -14  18   0    2.33    2.46
  14 -18   1   -0.15    2.43
 -14  18  -1    0.00    2.23
  14 -18   2    0.39    2.52
 -14  18  -2    2.80    4.27
 -14  18  -2    2.48    3.07
  14 -18   3    6.03    2.85
 -14  18  -3    1.04    2.43
  14 -18   4    0.36    2.47
 -14  18  -5    3.28    2.42
  14 -16  -8    2.06    3.17
 -14  16   8   10.55    4.30
 -14  16   7    9.76    4.59
  14 -16  -6    5.46    3.54
 -14  16   6    6.25    3.95
  14 -16  -5   11.89    3.71
 -14  16   5    4.86    3.90
  14 -16  -4    4.36    3.37
 -14  16   4    3.23    3.32
  14 -16  -3   11.57    3.98
 -14  16   3   14.43    3.73
  14 -16  -2   18.32    4.21
 -14  16   2   15.45    3.74
  14 -16  -1   20.32    5.36
 -14  16   1   27.24    5.85
 -14  16   1   14.29    4.89
  14 -16   0   20.84    3.79
 -14  16   0    7.19    4.91
 -14  16   0   16.20    3.18
  14 -16   1   12.63    3.12
 -14  16  -1   16.50    4.31
 -14  16  -1    7.25    2.83
  14 -16   2   14.32    3.39
 -14  16  -2    9.02    2.64
 -14  16  -3   10.42    2.71
 -14  16  -4    9.31    3.01
 -14  16  -6    0.57    2.69
  14 -14  -9    1.36    2.79
 -14  14   9   -0.76    3.74
  14 -14  -8    3.86    3.02
 -14  14   8    6.78    4.15
  14 -14  -7   -0.35    2.97
 -14  14   7   -1.84    3.63
  14 -14  -6    6.47    3.26
 -14  14   6    6.16    3.88
  14 -14  -5   -0.72    2.85
 -14  14   5   -0.35    3.18
  14 -14  -4   -0.06    2.93
 -14  14   4    3.69    3.03
  14 -14  -3    4.66    2.83
 -14  14   3   -1.14    2.78
  14 -14  -2    1.73    2.55
 -14  14   2    0.22    2.60
  14 -14  -1    2.51    2.65
 -14  14   1    0.85    4.45
 -14  14   1    4.13    2.48
 -14  14   0   11.93    3.98
 -14  14   0    4.72    2.58
  14 -14   1   -1.01    3.34
 -14  14  -1   -2.02    3.23
 -14  14  -1    0.62    2.81
  14 -14   2    0.14    2.70
  14 -14   3    5.59    2.92
 -14  14  -3   10.11    4.09
 -14  14  -3    3.56    2.69
 -14  14  -5    7.86    4.24
 -14  14  -7    0.82    2.59
 -14  12  10    4.66    4.06
  14 -12  -9    4.16    2.89
 -14  12   9    1.74    3.96
 -14  12   8    8.37    4.30
  14 -12  -7   10.79    4.61
 -14  12   7    5.74    4.06
 -14  12   6   10.37    4.12
  14 -12  -5   15.51    3.49
 -14  12   5    5.78    3.87
  14 -12  -4    6.79    3.09
 -14  12   4    5.66    3.30
  14 -12  -3    7.09    3.17
 -14  12   3   10.76    3.26
  14 -12  -2   20.77    3.51
 -14  12   2   15.18    3.64
  14 -12  -1   25.46    4.16
 -14  12   1   23.94    3.82
  14 -12   0   13.24    3.48
 -14  12   0   15.73    4.91
 -14  12   0   12.22    2.81
  14 -12   1   12.49    3.01
 -14  12  -1    7.52    3.88
 -14  12  -1   10.57    2.87
 -14  12  -2    8.13    3.65
 -14  12  -2   11.01    2.94
 -14  12  -3    9.34    3.07
 -14  12  -6    7.38    3.04
 -14  12  -7    3.50    3.02
  14 -10 -10    2.93    2.93
 -14  10  10    0.08    3.65
  14 -10  -9    3.81    3.09
 -14  10   9    0.79    3.74
 -14  10   8    5.71    3.86
  14 -10  -7    1.80    2.94
 -14  10   7    3.64    3.42
  14 -10  -6    4.36    2.85
 -14  10   6    2.10    3.32
  14 -10  -5    0.63    2.73
 -14  10   5    6.17    3.13
  14 -10  -4    5.18    2.78
 -14  10   4    5.83    3.10
  14 -10  -3    7.91    2.83
 -14  10   3    7.15    3.00
  14 -10  -2    8.96    2.85
 -14  10   2   12.38    3.02
  14 -10  -1   13.76    3.32
 -14  10   1   13.65    2.85
  14 -10   0    1.94    2.53
 -14  10   0    3.99    2.51
 -14  10  -1   -1.49    3.10
  14 -10   2    1.05    2.89
 -14  10  -2    3.74    2.78
 -14  10  -4    4.20    2.67
 -14  10  -4    9.14    2.92
 -14  10  -5    5.77    3.18
 -14  10  -6    3.35    3.01
 -14  10  -7    0.30    2.80
 -14  10  -8    2.59    2.88
  14  -8 -10    2.55    3.23
 -14   8  10    2.64    3.63
  14  -8  -9    4.16    3.36
 -14   8   9    8.30    3.72
  14  -8  -8    7.08    3.15
 -14   8   8    1.82    3.54
  14  -8  -7   -1.60    2.77
 -14   8   7    6.02    3.15
  14  -8  -6    2.67    3.65
 -14   8   6    2.46    3.14
  14  -8  -5    1.77    2.47
 -14   8   5   -2.98    2.81
  14  -8  -4    3.06    2.50
 -14   8   4    2.86    2.84
  14  -8  -3    4.05    2.33
 -14   8   3    2.64    2.65
  14  -8  -2    1.19    2.24
 -14   8   2   -0.47    2.17
  14  -8  -1    0.77    2.45
 -14   8   1    1.14    2.31
  14  -8   1    8.79    3.15
 -14   8  -2    0.02    2.62
 -14   8  -2    4.51    2.48
  14  -8   3    2.14    2.78
 -14   8  -3   -2.60    2.38
  14  -8   4    1.70    2.87
 -14   8  -5   -0.11    2.12
 -14   8  -5   -1.38    2.76
 -14   8  -6    2.87    2.94
 -14   8  -7   -0.68    2.68
 -14   8  -8   -1.71    2.00
 -14   8  -8    0.34    2.74
  14  -6 -11    0.20    3.57
 -14   6  11    4.10    3.48
  14  -6 -10   -6.63    3.32
 -14   6  10    6.96    4.68
  14  -6  -9   -3.13    3.05
 -14   6   9    2.64    3.17
  14  -6  -8    3.99    3.09
 -14   6   8    1.67    3.28
  14  -6  -7    5.83    2.86
 -14   6   7   -3.00    3.18
  14  -6  -6    2.22    2.72
 -14   6   6    5.77    3.13
  14  -6  -5    3.72    2.45
 -14   6   5   -2.37    2.77
 -14   6   4   -3.75    3.75
  14  -6  -3   -4.43    2.25
 -14   6   3    2.73    2.28
  14  -6  -2    7.09    2.87
 -14   6   2   10.94    2.89
 -14   6   1   14.43    3.20
  14  -6   0    8.81    2.88
 -14   6  -1    5.04    2.61
  14  -6   2    9.74    3.00
 -14   6  -2    2.66    2.81
  14  -6   3    4.75    2.87
 -14   6  -3   -2.46    2.96
 -14   6  -3    0.88    2.86
 -14   6  -4    4.09    2.64
 -14   6  -4    5.81    3.05
 -14   6  -5    4.63    3.10
 -14   6  -6    2.17    2.90
 -14   6  -7   -0.83    3.68
 -14   6  -8   -0.91    2.70
  14  -4 -11    1.57    4.98
 -14   4  11    3.45    3.40
  14  -4 -10    3.37    3.31
 -14   4  10   -2.91    3.26
  14  -4  -9    5.46    3.42
 -14   4   9    2.97    3.39
  14  -4  -8    5.35    3.38
 -14   4   8    9.50    4.74
  14  -4  -7   13.04    3.50
 -14   4   7    7.84    3.72
  14  -4  -6    7.92    3.16
 -14   4   6   11.57    3.58
  14  -4  -5   11.22    3.27
 -14   4   5   19.37    3.68
  14  -4  -4   17.04    3.15
 -14   4   4   18.74    3.41
  14  -4  -3   30.58    3.92
 -14   4   3   22.84    3.79
  14  -4  -2   54.85    5.97
 -14   4   2   54.18    6.01
 -14   4   0   48.53    5.47
  14  -4   1   40.51    5.38
  14  -4   2   19.32    4.46
 -14   4  -2   26.79    4.40
  14  -4   3   24.86    4.24
 -14   4  -3   15.66    2.96
 -14   4  -3   19.39    4.22
 -14   4  -4   12.50    3.57
 -14   4  -4    8.15    3.61
 -14   4  -5   11.04    3.59
 -14   4  -6    6.78    3.20
 -14   4  -7    6.49    2.87
 -14   4  -8    3.42    2.69
 -14   4  -9    0.94    2.59
  14  -2 -11    3.76    3.57
 -14   2  11   -0.47    3.24
  14  -2 -10    2.71    3.37
 -14   2  10   -0.34    3.11
  14  -2  -9    3.20    4.65
 -14   2   9    5.21    3.27
  14  -2  -8    1.98    3.26
 -14   2   8    8.39    3.21
  14  -2  -7    3.37    2.81
 -14   2   7    0.80    2.96
  14  -2  -6    4.68    2.58
 -14   2   6    0.81    2.90
  14  -2  -5    3.01    2.29
 -14   2   5    3.04    2.67
  14  -2  -4    0.65    2.18
 -14   2   4    1.17    2.28
  14  -2  -3    4.63    2.37
 -14   2   3   -2.11    2.52
  14  -2  -2    1.25    2.52
 -14   2   2    7.61    2.69
  14  -2  -1   18.43    3.76
  14  -2   1    7.14    3.07
 -14   2  -1    9.70    3.17
  14  -2   2    7.70    3.47
 -14   2  -2   17.40    3.55
 -14   2  -3    3.54    2.61
 -14   2  -3   -0.12    2.85
 -14   2  -4    1.81    1.83
 -14   2  -4   -3.05    2.82
 -14   2  -5    2.14    1.41
 -14   2  -5    4.94    2.93
 -14   2  -6    4.06    2.77
 -14   2  -7    0.76    2.52
 -14   2  -8    2.10    2.60
 -14   2  -9    5.62    2.25
 -14   2  -9    3.97    3.00
  14   0 -11    5.43    4.80
 -14   0  11    0.18    3.09
  14   0 -10    3.78    3.42
 -14   0  10    1.87    3.09
  14   0  -9    6.66    3.65
 -14   0   9    9.90    3.33
  14   0  -8    5.71    3.17
 -14   0   8    5.81    3.09
  14   0  -7    9.60    2.98
 -14   0   7    4.17    3.16
  14   0  -6    8.10    2.56
 -14   0   6    3.42    2.89
  14   0  -5    5.68    2.32
 -14   0   5    1.79    2.47
  14   0  -4   -0.83    2.44
 -14   0   4    7.41    2.57
  14   0  -3    1.62    2.36
 -14   0   3    7.42    2.63
  14   0  -2   13.49    2.91
 -14   0   2    9.28    3.08
  14   0  -1   16.08    3.79
 -14   0   1   20.08    3.41
  14   0   0   10.47    3.17
  14   0   1    5.92    3.16
 -14   0  -1    9.47    3.15
  14   0   2    1.54    2.87
 -14   0  -2    4.78    2.83
 -14   0  -3    4.09    1.93
 -14   0  -3   -0.92    2.84
 -14   0  -4    4.75    1.55
 -14   0  -4    2.16    2.75
 -14   0  -5    1.94    1.13
 -14   0  -5   -3.79    3.51
 -14   0  -6   -0.02    1.11
 -14   0  -6    3.38    2.50
 -14   0  -7    1.64    2.63
 -14   0  -8    1.33    2.64
 -14   0  -9    3.33    2.30
 -14   0  -9    8.06    3.08
  14   2 -11    5.83    3.56
 -14  -2  11   -0.01    4.18
  14   2 -10   -1.85    3.13
 -14  -2  10    2.37    3.64
  14   2  -9   -4.28    3.11
 -14  -2   9    0.08    3.88
  14   2  -8    5.64    2.81
 -14  -2   8    3.76    2.93
  14   2  -7    1.28    3.48
 -14  -2   7    5.67    2.81
  14   2  -6    0.00    2.34
 -14  -2   6    6.11    3.51
  14   2  -5   -5.36    2.52
 -14  -2   5   -0.06    3.24
  14   2  -4    4.76    2.33
 -14  -2   4    4.50    3.66
  14   2  -3    4.08    2.56
 -14  -2   3    7.51    2.69
  14   2  -2   30.17    3.74
 -14  -2   2    8.95    3.23
  14   2  -1   11.16    3.14
  14   2   0    8.86    3.00
 -14  -2   0    3.57    2.96
  14   2   1    3.25    2.65
 -14  -2  -1   -5.18    2.67
 -14  -2  -2   -0.56    2.70
 -14  -2  -3   -0.39    2.50
 -14  -2  -4    1.61    1.67
 -14  -2  -4    0.11    2.57
 -14  -2  -5    0.18    1.15
 -14  -2  -5   -0.55    2.56
 -14  -2  -6    1.04    0.97
 -14  -2  -6    0.14    2.62
 -14  -2  -7   -1.34    2.66
 -14  -2  -8   -0.16    2.44
 -14  -2  -9    2.59    3.49
 -14  -2  -9   -2.05    2.65
  14   4 -11   -1.74    3.14
 -14  -4  11    2.74    2.75
  14   4 -10    7.80    3.26
 -14  -4  10    3.48    2.93
  14   4  -9    4.03    2.92
 -14  -4   9    6.92    2.87
  14   4  -8    5.50    2.89
 -14  -4   8   10.94    3.01
  14   4  -7   14.00    3.21
 -14  -4   7   12.24    3.36
  14   4  -6   15.60    3.32
 -14  -4   6   15.48    3.41
  14   4  -5   20.26    3.28
 -14  -4   5   18.88    3.35
  14   4  -4   25.32    3.64
 -14  -4   4   21.92    3.91
  14   4  -3   39.86    5.13
 -14  -4   3   39.36    4.92
  14   4  -2   51.51    5.81
 -14  -4   2   51.86    5.63
  14   4  -1   73.28    7.80
 -14  -4   1   75.64    7.96
  14   4   0   51.72    6.14
 -14  -4  -1   25.30    4.41
 -14  -4  -2   17.39    3.73
 -14  -4  -3   13.29    3.29
 -14  -4  -4    3.61    1.64
 -14  -4  -4   12.63    2.91
 -14  -4  -5    0.76    0.78
 -14  -4  -5    6.68    3.48
 -14  -4  -6    1.25    0.78
 -14  -4  -6    3.76    2.63
 -14  -4  -7    5.23    2.61
 -14  -4  -8    1.66    2.28
 -14  -4  -8    3.64    3.56
 -14  -4  -9    2.58    3.92
 -14  -4  -9    5.78    3.08
  14   6 -11   -0.80    3.74
 -14  -6  11   -1.79    2.59
  14   6 -10   -1.61    2.52
 -14  -6  10    1.49    2.42
  14   6  -9    1.94    2.51
 -14  -6   9   -0.17    2.42
  14   6  -8    2.44    3.57
 -14  -6   8    7.66    2.68
  14   6  -7    4.19    2.61
 -14  -6   7    5.81    2.56
  14   6  -6    2.05    3.25
 -14  -6   6    6.98    2.37
 -14  -6   5    7.17    2.70
  14   6  -4    7.53    2.64
 -14  -6   4    2.95    2.65
  14   6  -3    7.32    2.86
 -14  -6   3   13.98    2.81
  14   6  -2   13.12    3.37
 -14  -6   2   21.54    3.46
  14   6  -1   16.65    3.50
 -14  -6   1   20.08    3.70
 -14  -6   0    7.61    3.02
 -14  -6  -1    3.77    2.65
 -14  -6  -2   -1.94    2.39
 -14  -6  -3   -0.52    2.32
 -14  -6  -4    0.73    1.17
 -14  -6  -4   -2.47    3.15
 -14  -6  -5    1.38    0.69
 -14  -6  -5    4.41    2.41
 -14  -6  -6    1.13    2.22
 -14  -6  -7   -1.05    2.09
 -14  -6  -7    0.94    2.29
 -14  -6  -8    0.77    3.49
 -14  -6  -8   -0.33    2.53
 -14  -6  -9   -0.47    3.19
  14   8 -10    0.99    3.13
 -14  -8  10   -0.24    2.25
  14   8  -9    3.21    2.43
  14   8  -8    3.71    2.16
 -14  -8   8    2.32    2.39
  14   8  -7    1.11    2.03
 -14  -8   7   -0.13    2.21
  14   8  -6    1.41    2.19
 -14  -8   6   -0.74    2.76
  14   8  -5    5.02    2.45
 -14  -8   5    7.52    3.41
 -14  -8   4    3.58    2.44
  14   8  -3    2.30    2.26
 -14  -8   3    1.37    2.24
  14   8  -2    6.05    2.31
 -14  -8   2   -2.09    2.49
 -14  -8   1   -4.34    2.59
 -14  -8   0   -0.71    2.38
 -14  -8  -1    3.24    2.30
 -14  -8  -2   -3.04    2.22
 -14  -8  -3   -3.25    2.25
 -14  -8  -4    0.82    0.93
 -14  -8  -4   -0.82    2.16
 -14  -8  -5   -0.15    1.92
 -14  -8  -6    3.56    2.15
 -14  -8  -7    2.69    2.17
 -14  -8  -7    0.24    3.53
 -14  -8  -8    8.50    3.94
 -14  -8  -8    1.88    3.99
  14  10 -10    3.58    2.65
 -14 -10  10    4.92    2.30
  14  10  -9    0.16    1.80
 -14 -10   9    3.83    2.16
  14  10  -8    1.84    2.01
 -14 -10   8    4.22    2.26
  14  10  -7    7.74    2.22
 -14 -10   7    3.12    3.25
  14  10  -6    6.38    2.11
 -14 -10   6    5.95    2.25
  14  10  -5    7.06    2.24
 -14 -10   5   10.48    2.62
 -14 -10   3    5.53    2.54
 -14 -10   2   14.12    3.03
 -14 -10   1   10.35    2.86
 -14 -10   0    6.97    2.55
 -14 -10  -1   -0.86    2.74
 -14 -10  -2    0.96    2.02
 -14 -10  -3    6.44    2.19
 -14 -10  -4    1.10    0.66
 -14 -10  -4    4.52    2.56
 -14 -10  -5   -0.64    2.87
 -14 -10  -6    2.79    2.25
 -14 -10  -6    6.20    3.56
 -14 -10  -7    3.15    3.51
 -14 -10  -7   -1.08    3.68
 -14 -10  -8    5.63    3.91
 -14 -10  -8    2.24    4.15
 -14 -12  10    3.51    2.06
  14  12  -9    1.73    1.41
 -14 -12   9    3.69    2.01
  14  12  -8    2.73    1.97
 -14 -12   8    0.25    2.76
  14  12  -7    3.40    1.68
 -14 -12   7    4.84    2.90
  14  12  -6    8.60    2.08
  14  12  -5    8.45    2.15
  14  12  -4    7.10    2.25
 -14 -12   4    9.88    2.39
 -14 -12   3   11.02    2.75
 -14 -12   2   16.22    3.00
 -14 -12   1   16.42    3.00
 -14 -12   0   11.83    2.46
 -14 -12  -1    4.35    1.97
 -14 -12  -2   -2.39    3.40
 -14 -12  -3    1.38    0.72
 -14 -12  -3   -0.32    2.48
 -14 -12  -4    3.90    2.97
 -14 -12  -5    4.39    2.20
 -14 -12  -5    3.76    3.26
 -14 -12  -6    9.79    3.82
 -14 -12  -6    2.13    4.01
 -14 -12  -7    7.77    3.93
 -14 -12  -7    1.39    4.08
  14  14  -9    0.40    1.65
 -14 -14   9    0.31    1.71
  14  14  -8    0.80    2.35
 -14 -14   8    2.08    2.48
  14  14  -7    2.04    1.88
 -14 -14   7    5.00    1.93
 -14 -14   5    0.57    1.94
 -14 -14   3   -1.49    2.75
 -14 -14   2    4.71    2.09
 -14 -14   1    2.61    2.56
 -14 -14   0    5.30    2.33
 -14 -14  -1    4.67    2.52
 -14 -14  -2    1.46    0.95
 -14 -14  -2   -1.15    2.51
 -14 -14  -3    0.25    0.73
 -14 -14  -3   -0.04    2.46
 -14 -14  -4    0.27    1.89
 -14 -14  -4    0.16    2.74
 -14 -14  -5    2.76    3.57
 -14 -14  -5    5.01    3.55
 -14 -14  -6    2.44    3.78
 -14 -14  -6    7.76    5.29
 -14 -14  -7    5.48    4.27
 -14 -16   8    3.07    2.31
 -14 -16   7    6.62    1.93
 -14 -16   6    8.11    2.15
 -14 -16   5    4.53    2.73
 -14 -16   4    8.62    2.75
 -14 -16   3    8.72    2.19
 -14 -16   2   11.57    2.73
 -14 -16   1   13.71    3.00
 -14 -16   0    2.38    1.67
 -14 -16   0    5.92    2.43
 -14 -16  -1    1.64    1.34
 -14 -16  -1    5.98    2.60
 -14 -16  -2    1.17    1.08
 -14 -16  -2    4.37    2.71
 -14 -16  -3    1.79    0.52
 -14 -16  -3    1.26    1.95
 -14 -16  -3    4.81    3.59
 -14 -16  -4    7.05    3.70
 -14 -16  -4    7.73    3.30
 -14 -16  -5    4.73    3.55
 -14 -16  -5    0.53    3.60
 -14 -16  -6   -0.49    3.47
 -14 -16  -6    0.75    3.68
 -14 -18   7    0.32    1.45
 -14 -18   6    1.62    2.15
 -14 -18   5    4.81    2.41
 -14 -18   4    0.14    1.81
 -14 -18   4    0.92    1.49
 -14 -18   3   -1.94    1.60
 -14 -18   3    1.53    2.10
 -14 -18   2   -2.80    2.09
 -14 -18   2   -0.49    2.28
 -14 -18   1    0.97    1.43
 -14 -18   1    6.76    2.35
 -14 -18   0   -0.50    1.71
 -14 -18   0    6.54    2.30
 -14 -18  -1   -0.65    1.37
 -14 -18  -1    2.93    3.24
 -14 -18  -2    1.02    0.88
 -14 -18  -2    3.21    3.03
 -14 -18  -2    3.77    2.40
 -14 -18  -3   -0.06    4.56
 -14 -18  -3    6.33    2.82
 -14 -18  -4    2.49    3.29
 -14 -18  -4    1.06    3.14
 -14 -18  -5    1.88    4.67
 -14 -20   6    4.09    1.98
 -14 -20   5   -1.57    3.19
 -14 -20   5   -1.64    2.53
 -14 -20   4    0.30    2.05
 -14 -20   4    2.71    1.96
 -14 -20   3   -1.78    1.83
 -14 -20   3    3.00    2.17
 -14 -20   2   -3.18    2.28
 -14 -20   2    2.69    2.25
 -14 -20   1    0.52    1.62
 -14 -20   1   -0.56    2.21
 -14 -20   0    2.28    1.30
 -14 -20   0   -3.36    1.69
 -14 -20   0   -1.07    2.23
 -14 -20  -1   -0.23    1.21
 -14 -20  -1    8.02    3.00
 -14 -20  -1    1.60    2.45
 -14 -20  -2   -2.61    3.05
 -14 -20  -2    0.47    2.39
 -14 -20  -3    4.11    3.46
 -14 -20  -3    4.44    2.82
 -14 -22   3    0.17    2.29
 -14 -22   2    1.38    2.67
 -14 -22   2    3.65    2.50
 -14 -22   1   -0.15    1.47
 -14 -22   1    3.15    2.32
 -14 -22   0   -0.13    1.16
 -14 -22   0   -0.85    2.41
 -14 -22  -1    4.46    2.75
 -15  21   2    0.88    2.74
 -15  21   1    3.96    2.71
 -15  21   0    2.95    2.58
  15 -19  -5    6.60    3.99
 -15  19   5    3.31    3.82
  15 -19  -4   -0.48    3.76
 -15  19   4    5.17    3.42
  15 -19  -3    9.56    4.29
 -15  19   3   12.52    6.21
 -15  19   3    7.49    4.82
  15 -19  -2    5.70    3.85
 -15  19   2   22.75    5.35
 -15  19   2    6.31    3.31
  15 -19  -1   11.46    3.83
 -15  19   1   16.28    5.21
 -15  19   1    6.96    3.20
  15 -19   0    5.61    3.82
 -15  19   0   17.04    4.92
 -15  19   0    9.39    3.05
  15 -19   1    9.34    3.21
 -15  19  -1    5.46    2.90
  15 -19   2    7.29    3.34
 -15  19  -2    5.12    2.83
 -15  19  -3    3.57    3.72
  15 -17  -6    1.29    3.41
 -15  17   6    1.44    3.74
  15 -17  -5   -4.87    3.45
 -15  17   5    1.07    3.51
  15 -17  -4   -2.72    3.37
 -15  17   4   -0.37    3.22
  15 -17  -3   -7.42    3.52
 -15  17   3   -1.30    3.14
  15 -17  -2    3.47    3.17
 -15  17   2   10.12    4.97
 -15  17   2    2.38    2.88
  15 -17  -1   -2.84    3.03
 -15  17   1   -5.43    5.72
 -15  17   1   -2.36    2.66
  15 -17   0    5.49    3.06
 -15  17   0    2.82    4.07
 -15  17   0    2.13    2.60
  15 -17   1    4.10    3.76
 -15  17  -1    4.41    3.92
 -15  17  -1    1.00    2.52
  15 -17   2   -2.09    4.00
 -15  17  -2    3.22    2.51
  15 -17   3   -2.53    2.79
 -15  17  -3    1.14    2.38
 -15  17  -4    0.70    2.44
 -15  15   8    3.18    4.20
  15 -15  -7    5.63    3.60
 -15  15   7    8.13    4.27
 -15  15   6    1.26    3.60
  15 -15  -5    4.07    3.08
 -15  15   5   -6.55    4.49
  15 -15  -4    3.42    3.09
 -15  15   4   -2.58    3.05
  15 -15  -3    1.66    3.14
 -15  15   3    2.47    2.96
  15 -15  -2    3.41    2.88
 -15  15   2   -0.11    2.78
  15 -15  -1    8.49    3.31
 -15  15   1   12.11    4.95
 -15  15   1    4.25    2.93
  15 -15   0    0.40    2.84
 -15  15   0    1.67    3.65
 -15  15   0   -0.62    2.42
  15 -15   1    4.45    2.87
 -15  15  -1    0.85    5.03
 -15  15  -1    3.43    2.37
  15 -15   2    9.47    3.58
 -15  15  -4    5.08    3.07
  15 -13  -8    1.38    3.29
 -15  13   8    6.92    4.11
  15 -13  -7    2.72    3.32
 -15  13   7    3.31    3.95
  15 -13  -6    3.63    3.30
 -15  13   6    5.50    3.81
  15 -13  -5    9.63    3.59
  15 -13  -4    7.53    3.36
 -15  13   4    6.64    3.56
 -15  13   3    8.22    3.35
  15 -13  -2    9.99    3.76
 -15  13   2   23.56    3.71
  15 -13  -1   28.04    4.50
 -15  13   1   21.95    4.04
  15 -13   0   13.96    3.60
 -15  13   0   21.90    5.10
 -15  13   0   14.44    3.12
  15 -13   1    9.01    3.32
 -15  13  -1   13.29    4.06
 -15  13  -1    8.54    2.81
  15 -13   2    9.34    3.77
 -15  13  -2   12.15    4.03
 -15  13  -2   10.92    3.25
 -15  13  -4   13.10    3.83
 -15  13  -6    5.10    3.11
  15 -11  -9   -1.75    3.15
 -15  11   9    5.08    3.89
  15 -11  -8   -2.99    3.09
 -15  11   8    5.78    3.74
 -15  11   7    3.90    3.78
  15 -11  -6   -1.44    2.98
 -15  11   6    4.14    3.33
  15 -11  -5    2.84    2.93
 -15  11   5    2.29    4.49
  15 -11  -4   -2.31    2.73
 -15  11   4    3.62    2.97
  15 -11  -3    5.34    3.01
 -15  11   3    9.89    3.27
  15 -11  -2   12.59    3.32
 -15  11   2   13.43    3.37
  15 -11  -1   12.31    3.41
 -15  11   1   10.79    2.92
  15 -11   0    5.31    3.32
 -15  11   0   20.92    5.16
 -15  11   0   14.11    2.90
 -15  11  -1   12.86    5.60
 -15  11  -1   12.47    3.26
 -15  11  -2    8.14    3.52
 -15  11  -4    5.88    4.09
 -15  11  -4    6.71    3.09
 -15  11  -6    0.96    2.88
  15  -9  -9    4.53    3.45
 -15   9   9    4.07    3.97
  15  -9  -8    6.01    3.34
 -15   9   8    2.58    3.84
 -15   9   7    3.87    3.55
  15  -9  -6   -4.75    2.91
 -15   9   6    0.26    3.36
  15  -9  -5    2.29    2.70
 -15   9   5    0.14    3.09
 -15   9   4    2.95    2.98
  15  -9  -3    0.76    2.41
 -15   9   3    0.70    3.53
  15  -9  -2    0.43    2.57
 -15   9   2    1.38    2.36
  15  -9  -1    3.39    3.09
 -15   9   1   10.60    2.66
 -15   9   0    2.16    2.64
 -15   9  -1    2.02    3.43
 -15   9  -2    1.26    2.77
 -15   9  -3    1.20    2.98
 -15   9  -5   -1.35    3.11
 -15   9  -6    0.34    2.97
 -15   9  -7   -3.78    3.17
  15  -7 -10    2.87    3.63
 -15   7  10    5.29    3.96
  15  -7  -9   -1.85    3.38
 -15   7   9   -3.44    3.60
  15  -7  -8   -1.67    3.08
 -15   7   8    4.60    3.39
  15  -7  -7    3.83    3.11
 -15   7   7    4.18    3.47
  15  -7  -6   -0.76    2.78
 -15   7   6   -2.68    3.11
  15  -7  -5    1.70    2.62
 -15   7   5    3.05    4.06
  15  -7  -4    2.30    2.47
 -15   7   4    4.02    2.88
  15  -7  -3    0.76    2.31
 -15   7   3    0.16    2.36
  15  -7  -2    0.71    2.53
 -15   7   2    0.35    2.33
  15  -7  -1    1.84    2.70
 -15   7   1    9.11    2.89
 -15   7  -2   -0.36    3.52
  15  -7   3    6.34    3.23
 -15   7  -3    0.60    3.44
 -15   7  -4    0.70    2.66
 -15   7  -5    0.57    3.01
 -15   7  -6    6.60    3.41
 -15   7  -7    4.73    3.20
  15  -5 -10    3.78    3.44
 -15   5  10   -4.39    3.51
  15  -5  -9   -1.20    3.40
 -15   5   9    6.59    3.57
  15  -5  -8    1.06    3.29
 -15   5   8    4.36    3.42
  15  -5  -7    0.42    2.94
 -15   5   7   -1.66    3.14
  15  -5  -6    5.74    3.09
 -15   5   6    8.82    3.48
  15  -5  -5   -1.15    2.37
 -15   5   5    3.13    2.90
  15  -5  -4    7.50    2.62
 -15   5   4    5.10    3.06
  15  -5  -3    6.27    2.67
 -15   5   3    3.60    2.71
  15  -5  -2    7.03    2.92
 -15   5   2   14.49    3.22
  15  -5  -1   17.03    3.50
 -15   5   0   12.55    3.52
  15  -5   2    5.81    3.33
 -15   5  -2    2.98    2.98
 -15   5  -2    7.80    3.28
  15  -5   3    6.69    3.30
 -15   5  -3    3.92    2.42
 -15   5  -3    2.67    3.31
 -15   5  -4    5.38    3.50
 -15   5  -4    4.04    3.33
 -15   5  -5    3.74    3.27
 -15   5  -6    3.85    3.22
 -15   5  -7    5.42    3.20
 -15   5  -8    2.96    3.05
  15  -3 -10   -0.04    3.75
 -15   3  10    7.68    3.60
  15  -3  -9    1.43    3.62
 -15   3   9    7.84    3.55
  15  -3  -8    3.76    3.29
 -15   3   8    1.87    3.34
  15  -3  -7    4.99    3.28
 -15   3   7    6.94    3.44
  15  -3  -6    4.84    2.95
 -15   3   6   11.93    3.45
  15  -3  -5    4.59    2.54
 -15   3   5    1.15    3.01
  15  -3  -4    7.61    2.77
 -15   3   4    5.95    2.81
  15  -3  -3    5.62    2.94
 -15   3   3    7.40    3.02
 -15   3   2   24.08    4.21
  15  -3  -1   25.47    4.64
  15  -3   2   13.52    3.86
 -15   3  -2   11.17    3.84
 -15   3  -3    1.62    2.19
 -15   3  -3    3.74    3.22
 -15   3  -4    4.64    3.28
 -15   3  -4    9.48    3.51
 -15   3  -5    1.61    1.64
 -15   3  -5    8.15    3.25
 -15   3  -6   -0.11    2.95
 -15   3  -7    2.75    3.06
 -15   3  -8    2.18    2.84
  15  -1 -10   -0.91    3.61
 -15   1  10    3.96    3.30
  15  -1  -9    4.56    3.39
 -15   1   9   -1.13    3.17
  15  -1  -8    0.07    3.29
 -15   1   8    5.70    3.18
  15  -1  -7    5.61    2.96
 -15   1   7    4.74    3.33
  15  -1  -6    2.46    2.60
 -15   1   6    3.85    3.05
  15  -1  -5    3.74    2.72
 -15   1   5    6.20    2.94
  15  -1  -4    5.11    2.83
 -15   1   4    6.14    2.71
  15  -1  -3    6.75    2.88
 -15   1   3   13.12    3.24
 -15   1   2   14.74    3.73
 -15   1  -1   13.82    3.89
  15  -1   2    6.18    3.37
 -15   1  -3    5.19    2.89
 -15   1  -3    3.03    3.33
 -15   1  -4    2.73    2.01
 -15   1  -4    7.14    3.32
 -15   1  -5   -0.96    1.29
 -15   1  -5    5.94    2.97
 -15   1  -6    0.38    1.24
 -15   1  -6    0.95    2.74
 -15   1  -7    1.59    3.73
 -15   1  -8    7.12    3.12
  15   1 -10    5.93    4.85
 -15  -1  10    2.26    3.25
  15   1  -9   -1.65    3.18
 -15  -1   9    5.51    4.04
  15   1  -8    3.21    3.04
 -15  -1   8    6.81    4.25
  15   1  -7    3.49    2.74
 -15  -1   7    3.08    3.06
  15   1  -6    1.16    2.71
 -15  -1   6    6.16    2.94
  15   1  -5    7.62    2.95
 -15  -1   5    7.84    2.86
  15   1  -4    4.26    2.54
 -15  -1   4    5.30    2.87
  15   1  -3    9.68    3.01
  15   1   0   19.79    4.33
 -15  -1  -1    9.05    3.57
 -15  -1  -2    3.04    3.20
 -15  -1  -3    1.66    1.99
 -15  -1  -3   -1.12    3.03
 -15  -1  -4    3.51    1.53
 -15  -1  -4    1.15    3.15
 -15  -1  -5   -0.29    1.40
 -15  -1  -5   -1.64    2.79
 -15  -1  -6    1.15    1.15
 -15  -1  -6    1.00    2.77
 -15  -1  -7    0.29    1.10
 -15  -1  -7   -3.91    2.75
 -15  -1  -8    4.36    3.14
  15   3 -10   -0.53    3.13
 -15  -3  10    3.81    2.98
  15   3  -9    4.14    4.19
 -15  -3   9    4.04    3.02
  15   3  -8    2.66    2.85
 -15  -3   8    4.45    3.03
  15   3  -7    8.02    3.15
 -15  -3   7    9.81    3.30
  15   3  -6    8.85    3.03
 -15  -3   6    6.75    3.11
  15   3  -5    4.78    2.75
 -15  -3   5    8.29    2.76
  15   3  -4    8.39    3.02
 -15  -3   4   14.55    3.28
  15   3  -2   26.02    4.40
 -15  -3   1   36.64    5.46
  15   3   0   22.60    4.47
  15   3   1   10.04    3.52
 -15  -3  -1    9.78    3.52
 -15  -3  -2    4.98    3.24
 -15  -3  -3   -0.46    2.90
 -15  -3  -4    2.50    1.79
 -15  -3  -4    4.73    2.85
 -15  -3  -5    1.42    0.91
 -15  -3  -5    3.52    2.75
 -15  -3  -6    1.21    0.94
 -15  -3  -6   -0.83    2.78
 -15  -3  -7    6.20    3.12
 -15  -3  -8    0.92    2.36
 -15  -3  -8    2.13    2.94
  15   5 -10    4.16    2.97
 -15  -5  10    0.34    2.84
  15   5  -9    3.68    2.98
  15   5  -8    4.75    3.70
 -15  -5   8    1.56    2.78
  15   5  -7    2.00    2.47
 -15  -5   7    3.50    2.79
  15   5  -6    2.93    3.28
 -15  -5   6    1.62    2.46
  15   5  -4   11.76    3.33
  15   5  -3    9.37    3.11
  15   5  -1   14.30    3.78
 -15  -5   1   16.24    3.78
  15   5   0   11.46    3.62
 -15  -5   0   13.57    3.71
 -15  -5  -1   -1.02    2.87
 -15  -5  -2    9.11    3.33
 -15  -5  -3    3.50    2.73
 -15  -5  -4    0.91    1.37
 -15  -5  -4   -2.03    2.54
 -15  -5  -5    1.72    0.77
 -15  -5  -5   -2.24    2.65
 -15  -5  -6    0.84    2.64
 -15  -5  -7    0.13    2.70
 -15  -5  -8    4.18    2.89
  15   7 -10    0.54    3.63
 -15  -7  10    1.02    2.52
  15   7  -9    3.69    2.63
 -15  -7   9   -0.01    2.58
  15   7  -8   -2.07    2.26
 -15  -7   8    2.82    2.49
  15   7  -7    2.71    2.51
 -15  -7   7    5.98    2.65
  15   7  -6    3.44    2.61
 -15  -7   6    2.65    2.37
  15   7  -5   -2.71    2.63
 -15  -7   5   -3.24    2.62
 -15  -7   4    4.23    2.67
  15   7  -2    4.46    2.96
 -15  -7   2    8.89    2.95
  15   7  -1    0.30    2.76
 -15  -7   1    5.33    2.83
 -15  -7   0   -3.19    2.76
 -15  -7  -1    2.56    2.63
 -15  -7  -2    1.33    2.43
 -15  -7  -3   -1.63    2.40
 -15  -7  -4    2.13    1.16
 -15  -7  -4   -0.77    2.44
 -15  -7  -5   -0.08    2.37
 -15  -7  -6    1.20    2.50
 -15  -7  -7   -1.67    2.23
 -15  -7  -7    3.03    2.36
  15   9  -9    0.46    2.27
 -15  -9   9    4.79    2.43
  15   9  -8    1.60    2.36
 -15  -9   8    3.08    2.42
  15   9  -7    7.44    2.65
 -15  -9   7    4.70    3.59
  15   9  -5    4.77    2.28
 -15  -9   5   -1.44    2.51
  15   9  -4    3.50    2.46
  15   9  -3    0.74    2.43
 -15  -9   3    3.28    2.42
 -15  -9   1   11.56    3.16
 -15  -9   0    2.15    2.59
 -15  -9  -1    1.78    2.41
 -15  -9  -2    1.34    2.99
 -15  -9  -3    2.40    2.30
 -15  -9  -4    0.42    0.59
 -15  -9  -4   -1.45    2.17
 -15  -9  -5    1.06    2.25
 -15  -9  -6    0.34    3.07
 -15  -9  -7    5.28    3.81
 -15  -9  -7   -0.82    3.46
  15  11  -9   -1.70    1.83
 -15 -11   9    6.39    2.22
  15  11  -8    3.25    1.89
 -15 -11   8    3.97    3.20
  15  11  -7    3.29    2.71
 -15 -11   7    4.36    3.21
 -15 -11   6    3.99    2.28
  15  11  -4    6.12    2.43
 -15 -11   2    1.00    2.49
 -15 -11   1    4.04    2.58
 -15 -11   0    8.73    3.68
 -15 -11  -1    3.07    2.19
 -15 -11  -2    5.78    2.19
 -15 -11  -3   -3.67    2.97
 -15 -11  -4    5.47    3.42
 -15 -11  -5    2.38    3.15
 -15 -11  -6    3.34    2.34
 -15 -11  -6    3.27    3.52
 -15 -11  -7    3.92    3.82
  15  13  -8    3.65    1.76
 -15 -13   8    6.18    3.03
 -15 -13   7    7.14    2.42
  15  13  -6    5.77    2.12
 -15 -13   5   10.21    2.68
 -15 -13   4    7.60    2.45
 -15 -13   3   12.59    2.90
 -15 -13   2    8.81    2.68
 -15 -13   1   15.19    2.94
 -15 -13   0   10.32    2.50
 -15 -13  -1    9.32    3.85
 -15 -13  -2    7.08    3.05
 -15 -13  -3    1.11    0.67
 -15 -13  -3    2.25    2.92
 -15 -13  -4    6.05    3.25
 -15 -13  -5    5.54    2.32
 -15 -13  -5    1.99    4.69
 -15 -13  -6    4.03    3.74
 -15 -15   7    1.68    1.92
 -15 -15   6    1.23    2.02
 -15 -15   5    4.07    2.18
 -15 -15   4    6.64    2.93
 -15 -15   3   -2.57    2.85
 -15 -15   2    0.32    1.89
 -15 -15   1    5.07    2.61
 -15 -15   0    4.55    2.53
 -15 -15  -1    0.12    1.31
 -15 -15  -1    2.92    2.43
 -15 -15  -2   -0.34    0.98
 -15 -15  -2   -3.37    2.70
 -15 -15  -3    5.95    3.31
 -15 -15  -4   -0.19    2.11
 -15 -15  -4    6.13    2.99
 -15 -15  -5    1.97    5.04
 -15 -15  -5    5.30    3.48
 -15 -17   6    0.83    1.79
 -15 -17   5   -0.46    2.44
 -15 -17   4    4.30    2.49
 -15 -17   3    4.28    3.33
 -15 -17   2    1.13    3.22
 -15 -17   1    0.95    1.41
 -15 -17   1    5.99    3.37
 -15 -17   0   -0.76    1.56
 -15 -17   0   -0.35    2.40
 -15 -17  -1    2.05    1.35
 -15 -17  -1   -0.73    2.54
 -15 -17  -2    0.85    0.88
 -15 -17  -2   -4.04    3.72
 -15 -17  -3    3.32    3.18
 -15 -17  -3   -1.12    2.73
 -15 -17  -4    8.23    4.74
 -15 -19   4    2.41    2.20
 -15 -19   4    4.67    3.02
 -15 -19   3    5.11    2.71
 -15 -19   3    5.15    2.71
 -15 -19   2    3.40    1.74
 -15 -19   2    1.52    2.68
 -15 -19   1    3.75    2.23
 -15 -19   1    6.98    3.78
 -15 -19   0    2.59    1.47
 -15 -19   0    1.85    2.62
 -15 -19  -1    1.83    1.27
 -15 -19  -1    2.25    1.97
 -15 -19  -1    1.23    2.78
 -15 -19  -2    5.48    3.12
 -16  18   3    0.17    5.68
 -16  18   3    3.85    3.15
  16 -18  -2    9.28    3.78
 -16  18   2    6.55    5.48
  16 -18  -1    6.24    3.50
 -16  18   1    1.04    4.64
 -16  18   1    3.42    2.92
  16 -18   0    0.61    3.00
 -16  18   0    7.09    5.87
 -16  18   0    2.08    3.76
 -16  18  -1    0.45    2.65
  16 -16  -5    5.67    3.82
 -16  16   5    5.42    3.86
  16 -16  -4    4.61    3.64
 -16  16   4    3.87    3.48
  16 -16  -3    6.42    3.59
 -16  16   3    6.11    3.45
  16 -16  -2   17.59    4.34
 -16  16   2   27.46    7.25
 -16  16   2   14.94    4.04
  16 -16  -1    8.13    5.81
 -16  16   1   20.33    5.93
 -16  16   1   18.22    3.83
  16 -16   0   13.08    3.86
 -16  16   0   18.82    5.36
 -16  16   0   14.28    3.59
  16 -16   1   10.74    4.06
 -16  16  -1    9.40    5.03
 -16  16  -1   15.32    3.45
  16 -16   2    9.14    3.87
 -16  14   7    4.77    4.19
  16 -14  -6   -0.33    3.24
 -16  14   6   -1.92    3.59
  16 -14  -5   -1.71    3.20
 -16  14   5   -1.17    3.43
  16 -14  -4    2.59    3.21
 -16  14   4    2.02    4.37
  16 -14  -3    1.68    2.79
 -16  14   3   -1.95    2.83
  16 -14  -2    1.29    3.07
 -16  14   2    3.02    2.86
  16 -14  -1    5.78    3.22
 -16  14   1    6.61    4.81
 -16  14   1    1.20    2.84
  16 -14   0    0.58    3.92
 -16  14   0    2.86    5.43
 -16  14   0    4.44    2.72
  16 -14   1   -1.40    3.06
 -16  14  -1    5.62    3.52
 -16  14  -1   -1.51    2.47
 -16  14  -2   -0.23    4.11
 -16  14  -2    3.27    2.63
  16 -14   3   -0.42    3.04
 -16  14  -4    4.18    3.49
  16 -12  -7    0.28    3.18
 -16  12   7    3.90    3.78
  16 -12  -6    7.59    3.32
 -16  12   6   -0.29    3.76
  16 -12  -5   -1.47    2.87
 -16  12   5    2.03    3.30
  16 -12  -4   -0.22    2.67
 -16  12   4    0.26    2.98
  16 -12  -3    1.39    2.73
 -16  12   3    2.50    2.91
  16 -12  -2    6.44    3.01
 -16  12   2    1.37    2.90
  16 -12  -1   -0.51    2.94
 -16  12   1    2.99    2.70
  16 -12   0    1.46    2.82
 -16  12   0   -0.82    4.11
 -16  12   0    4.18    2.55
 -16  12  -1    3.79    3.63
 -16  12  -2    0.82    3.37
 -16  12  -2    2.79    2.89
 -16  12  -3    5.85    4.18
 -16  12  -4    7.74    3.42
  16 -10  -8    1.62    3.30
 -16  10   8    2.67    3.92
  16 -10  -7    3.74    3.19
 -16  10   7   -1.50    4.99
  16 -10  -6    0.76    3.06
 -16  10   6   -1.81    3.38
  16 -10  -5    8.09    3.35
 -16  10   5    7.03    3.72
  16 -10  -4    3.17    2.94
 -16  10   4    8.46    3.37
  16 -10  -3    4.42    2.90
 -16  10   3    5.89    3.13
  16 -10  -2    6.66    3.20
 -16  10   2    5.70    3.12
  16 -10  -1    8.13    3.20
 -16  10   1   11.12    3.09
  16 -10   0   10.56    3.40
 -16  10  -1    9.59    3.91
 -16  10  -1    6.74    3.32
 -16  10  -2    4.38    3.28
 -16  10  -3   10.34    4.08
 -16   8   9    6.71    4.31
  16  -8  -8    3.19    3.33
 -16   8   8    0.92    3.79
  16  -8  -7    2.59    3.07
 -16   8   7   -2.85    3.47
  16  -8  -6    1.88    2.92
 -16   8   6   -1.37    3.33
  16  -8  -5    6.47    3.01
 -16   8   5    7.09    3.58
  16  -8  -4    2.60    2.85
 -16   8   4    9.03    3.23
  16  -8  -3    6.81    3.08
 -16   8   3   10.35    3.32
  16  -8  -2    0.32    2.96
 -16   8   2    7.07    3.61
  16  -8  -1   13.36    3.40
 -16   8   0   11.59    3.54
 -16   8  -1    6.55    3.99
 -16   8  -2    8.26    3.30
 -16   8  -3    1.90    2.77
 -16   8  -4    1.70    2.41
 -16   8  -5    4.20    3.54
 -16   8  -6    2.96    3.39
  16  -6  -9   -0.02    3.43
 -16   6   9    1.65    3.64
  16  -6  -8    1.83    3.34
 -16   6   8    2.57    3.62
  16  -6  -7    4.26    3.07
 -16   6   7   -2.96    3.36
 -16   6   6    3.62    3.41
  16  -6  -5    3.54    3.49
 -16   6   5    0.27    3.10
  16  -6  -4    1.13    2.55
 -16   6   4    0.34    2.86
  16  -6  -3   -0.16    2.69
 -16   6   3    2.74    2.59
  16  -6  -2    1.65    2.71
 -16   6   2    7.58    3.02
  16  -6  -1    4.26    3.30
 -16   6   1   16.78    3.47
 -16   6   0   12.84    3.80
 -16   6  -2    2.50    3.82
  16  -6   3    4.19    3.58
 -16   6  -3    8.47    3.56
 -16   6  -3    0.80    3.48
 -16   6  -4    1.50    2.72
 -16   6  -5    1.38    2.17
 -16   6  -5    6.22    3.42
 -16   6  -6    4.45    3.48
  16  -4  -9   -0.91    3.60
 -16   4   9    4.15    3.55
  16  -4  -8    0.72    3.59
 -16   4   8    8.67    3.72
  16  -4  -7    4.66    3.21
 -16   4   7    1.48    3.48
  16  -4  -6    2.72    2.84
 -16   4   6    4.41    3.37
  16  -4  -5   -0.11    2.66
 -16   4   5    8.82    3.14
  16  -4  -4    4.91    2.80
 -16   4   4    4.40    2.81
  16  -4  -3    6.63    2.92
 -16   4   3   11.34    3.09
 -16   4   2   24.22    4.41
  16  -4  -1   18.88    4.30
 -16   4  -2    1.68    2.93
 -16   4  -2    1.45    3.30
 -16   4  -3    1.41    2.30
 -16   4  -4    1.72    3.33
 -16   4  -4    2.65    3.44
 -16   4  -5    3.20    1.90
 -16   4  -5    6.99    3.50
 -16   4  -6    2.54    2.04
 -16   4  -6    2.94    3.32
 -16   4  -7    2.73    3.30
  16  -2  -9   -5.93    3.96
 -16   2   9   -6.79    3.76
 -16   2   8   -1.10    3.32
  16  -2  -7   -4.27    2.99
 -16   2   7   -1.93    3.35
  16  -2  -6   -1.05    2.60
 -16   2   6   -0.15    3.03
  16  -2  -5    0.04    2.60
 -16   2   5    1.03    2.84
  16  -2  -4    2.04    2.55
 -16   2   4   -3.46    3.44
 -16   2   3   -2.03    2.91
 -16   2  -1   -1.61    3.22
  16  -2   2    0.72    3.26
 -16   2  -3    2.34    2.08
 -16   2  -3   -0.92    3.33
 -16   2  -4   -0.67    2.74
 -16   2  -4    0.76    3.25
 -16   2  -5   -1.71    1.50
 -16   2  -5    3.03    3.24
 -16   2  -6   -1.43    1.37
 -16   2  -6    5.42    4.28
 -16   2  -7   -5.54    3.46
  16   0  -9    3.23    3.27
 -16   0   9   -0.82    3.29
  16   0  -8    2.23    4.22
 -16   0   8    2.08    3.29
  16   0  -7    9.21    3.25
 -16   0   7    3.89    3.58
  16   0  -6    8.00    3.19
 -16   0   6    7.04    3.49
  16   0  -5    7.11    3.21
 -16   0   5   11.40    3.19
  16   0  -4   13.06    3.14
 -16   0   4   10.74    3.29
 -16   0   3   19.82    4.14
 -16   0   2   24.62    4.61
  16   0   0   25.40    5.04
 -16   0  -1   19.83    4.72
 -16   0  -2   17.68    4.61
 -16   0  -3    8.89    3.09
 -16   0  -3    2.54    3.74
 -16   0  -4    6.32    2.06
 -16   0  -4    2.64    3.70
 -16   0  -5    1.50    1.29
 -16   0  -5    6.17    3.38
 -16   0  -6    2.49    1.01
 -16   0  -7    0.14    2.88
  16   2  -9   -1.92    3.11
 -16  -2   9    0.23    3.11
  16   2  -8    1.86    3.10
 -16  -2   8    3.36    3.17
  16   2  -7    2.01    3.77
 -16  -2   7   -0.09    3.00
  16   2  -6    4.48    2.77
 -16  -2   6   -1.72    2.85
  16   2  -5   -1.46    3.43
 -16  -2   5   -1.95    3.53
 -16  -2   4    1.78    2.85
  16   2   0    1.94    3.27
  16   2   1    7.33    3.63
 -16  -2  -1    6.22    3.63
 -16  -2  -2    1.44    3.22
 -16  -2  -3   -0.13    1.99
 -16  -2  -3   -5.25    3.19
 -16  -2  -4    0.07    1.41
 -16  -2  -4   -5.01    3.18
 -16  -2  -5    0.21    0.77
 -16  -2  -5   -1.05    1.01
 -16  -2  -5   -1.69    2.88
 -16  -2  -6    1.12    1.12
 -16  -2  -6   -1.65    2.86
 -16  -2  -7   -2.05    2.96
  16   4  -9    0.80    3.04
  16   4  -8   -3.14    3.01
 -16  -4   8    7.39    2.99
  16   4  -7    7.79    2.87
 -16  -4   7    5.07    3.27
  16   4  -6    6.81    2.86
 -16  -4   6    5.80    3.16
 -16  -4   5    5.87    2.80
 -16  -4   4    5.74    3.10
  16   4  -1   21.13    4.72
 -16  -4   1   23.34    4.68
  16   4   0   13.11    4.03
 -16  -4  -1    7.25    4.75
 -16  -4  -2    3.90    3.31
 -16  -4  -3   -0.68    3.06
 -16  -4  -4    2.46    1.68
 -16  -4  -4   -1.07    2.87
 -16  -4  -5   -0.22    0.94
 -16  -4  -5   -5.53    3.72
 -16  -4  -6   -0.27    2.77
 -16  -4  -7   -1.28    2.99
  16   6  -9    3.42    2.76
 -16  -6   9    1.99    2.89
  16   6  -8   -2.96    3.46
 -16  -6   8    3.48    2.78
  16   6  -7    3.70    2.65
 -16  -6   7    0.96    2.79
  16   6  -6    3.75    2.97
 -16  -6   6    2.88    2.61
  16   6  -5    3.55    3.00
  16   6  -2   16.07    4.12
  16   6  -1   11.97    3.82
 -16  -6   0    3.21    3.14
 -16  -6  -1    0.50    2.87
 -16  -6  -2    6.34    3.23
 -16  -6  -3   -2.68    2.80
 -16  -6  -4    0.34    1.36
 -16  -6  -4    3.12    3.55
 -16  -6  -5    3.04    2.71
 -16  -6  -6    0.09    2.69
  16   8  -8    7.30    2.91
 -16  -8   8    1.72    2.85
  16   8  -7    7.26    3.99
 -16  -8   7    2.77    3.82
 -16  -8   5    6.30    4.01
  16   8  -3   18.44    3.96
  16   8  -2   13.27    3.39
 -16  -8   2    6.20    3.41
 -16  -8   1    2.93    3.01
 -16  -8   0    3.67    2.99
 -16  -8  -1    0.02    2.69
 -16  -8  -2   -2.04    2.73
 -16  -8  -3    3.43    2.60
 -16  -8  -4    1.81    0.78
 -16  -8  -4    2.79    2.44
 -16  -8  -5    0.23    2.49
 -16  -8  -6    3.92    2.75
  16  10  -8    2.14    2.37
 -16 -10   8    2.88    3.46
  16  10  -7    2.57    3.25
 -16 -10   7    2.81    3.47
  16  10  -6    8.69    2.73
 -16 -10   2   20.04    3.90
 -16 -10   1    6.03    2.97
 -16 -10   0    3.50    2.74
 -16 -10  -1    1.58    2.48
 -16 -10  -2    4.17    2.41
 -16 -10  -3    0.11    2.15
 -16 -10  -4    5.90    3.51
 -16 -10  -5   -1.77    3.56
  16  12  -7    0.61    2.01
 -16 -12   7    4.16    2.36
  16  12  -6    2.31    2.12
 -16 -12   6    2.17    2.24
  16  12  -5    3.45    2.29
 -16 -12   2    7.06    2.73
 -16 -12   1   -1.70    3.20
 -16 -12   0   -4.81    2.47
 -16 -12  -1    1.02    2.12
 -16 -12  -2    2.33    2.73
 -16 -12  -3    5.63    3.20
 -16 -12  -4    2.10    3.30
 -16 -12  -5    4.25    3.91
 -16 -14   5    1.95    2.25
 -16 -14   4    3.34    2.18
 -16 -14   3   -2.14    2.30
 -16 -14   2   -2.09    2.23
 -16 -14   1    0.30    2.02
 -16 -14   0    4.50    3.77
 -16 -14  -1    2.69    2.71
 -16 -14  -2    0.21    1.03
 -16 -14  -2    4.13    2.73
 -16 -14  -3   -2.76    3.24
 -16 -14  -4   -3.40    3.61
 -16 -16   5    4.91    2.24
 -16 -16   4    5.02    2.11
 -16 -16   3    6.31    2.28
 -16 -16   2    4.71    2.89
 -16 -16   1    7.82    3.17
 -16 -16   0    3.81    1.26
 -16 -16   0    5.81    3.04
 -16 -16  -1    3.45    1.42
 -16 -16  -1    4.50    2.92
 -16 -16  -2    5.15    3.17
 -16 -18   2    0.00    2.61
 -16 -18   1   -2.71    2.80
 -16 -18   0    2.01    2.84
 -17  15   3    2.45    3.19
  17 -15  -2    2.43    3.30
 -17  15   2    0.63    3.01
  17 -15  -1    2.16    3.19
 -17  15   1    3.69    4.79
 -17  15   1    5.76    3.07
  17 -15   0    0.78    3.19
 -17  15   0    6.10    4.20
 -17  15  -1    3.05    2.80
 -17  13   5    4.51    3.75
  17 -13  -4    6.52    3.50
 -17  13   4    9.24    3.79
  17 -13  -3   12.39    3.61
 -17  13   3    3.63    3.59
  17 -13  -2   15.99    4.10
 -17  13   2   12.24    3.86
  17 -13  -1   14.19    3.79
 -17  13   1   15.22    6.32
 -17  13   1   12.33    3.77
  17 -13   0    9.82    3.76
 -17  13   0   10.89    4.95
 -17  13   0   11.53    3.34
 -17  13  -1    4.72    4.08
 -17  13  -2    9.28    4.36
  17 -11  -6    1.51    3.13
 -17  11   6   -2.46    3.51
  17 -11  -5   -2.69    2.89
 -17  11   5    1.46    3.32
  17 -11  -4    5.31    2.97
 -17  11   4    0.27    3.35
  17 -11  -3   -1.25    3.02
 -17  11   3   -2.99    3.11
  17 -11  -2   -1.21    2.95
 -17  11   2    2.83    2.85
  17 -11  -1    1.16    2.89
 -17  11   1   -6.12    2.77
  17 -11   0   -5.85    3.33
 -17  11   0    1.64    4.36
  17 -11   1    2.17    3.49
 -17  11  -1    3.21    3.59
 -17  11  -2    5.90    4.92
 -17  11  -3    1.90    5.07
  17  -9  -7   -0.87    3.19
 -17   9   7    3.35    3.63
  17  -9  -6    2.15    2.84
 -17   9   6   -3.89    3.43
  17  -9  -5   -0.67    3.83
 -17   9   5   -3.11    3.36
  17  -9  -4   -3.07    2.94
 -17   9   4   -2.21    3.20
  17  -9  -3   -2.93    2.96
 -17   9   3   -2.26    3.09
  17  -9  -2   -1.46    2.61
 -17   9   2    0.05    2.64
  17  -9  -1    0.35    2.76
 -17   9   1   -0.52    2.64
 -17   9   0    0.89    2.96
 -17   9  -1    2.62    3.53
 -17   9  -2   -2.78    3.17
 -17   9  -3    3.13    3.47
 -17   9  -4    1.10    2.59
  17  -7  -7    2.36    3.44
 -17   7   7    5.49    3.83
  17  -7  -6    0.17    2.93
 -17   7   6    4.90    3.50
  17  -7  -5   -1.45    2.79
 -17   7   5    7.52    3.33
  17  -7  -4    5.81    3.00
 -17   7   4    2.95    3.35
  17  -7  -3    7.61    3.14
 -17   7   3    3.62    3.02
  17  -7  -2   12.58    3.46
 -17   7   2   14.18    3.52
 -17   7   0   14.69    4.09
 -17   7  -1   10.71    4.13
 -17   7  -1    3.67    3.64
 -17   7  -2    5.25    3.19
 -17   7  -3    7.70    3.17
 -17   7  -4    2.96    2.45
 -17   7  -5    9.63    4.19
 -17   5   8    0.93    3.58
  17  -5  -7   -0.64    3.17
 -17   5   7    7.51    3.65
  17  -5  -6   -2.43    2.79
 -17   5   6    2.86    3.27
  17  -5  -5    4.83    2.89
 -17   5   5    0.78    3.28
  17  -5  -4   -3.61    2.97
 -17   5   4   -3.38    3.21
  17  -5  -3    4.97    2.62
 -17   5   3   -1.79    2.92
 -17   5   1    9.27    3.71
 -17   5   0   18.42    4.52
 -17   5  -2    1.45    4.27
 -17   5  -2   10.60    3.72
 -17   5  -3    2.27    3.37
 -17   5  -3    1.25    3.62
 -17   5  -4    4.42    2.96
 -17   5  -4    5.68    5.22
 -17   5  -5   -4.18    3.80
  17  -3  -8    5.50    3.50
 -17   3   8    1.19    3.80
  17  -3  -7    9.12    3.56
 -17   3   7    6.29    4.03
  17  -3  -6    8.81    3.65
 -17   3   6   12.94    4.07
  17  -3  -5    5.51    3.13
 -17   3   5    4.60    3.45
  17  -3  -4   10.84    3.18
 -17   3   4   11.18    3.47
  17  -3  -3   20.20    3.79
 -17   3   3   15.31    3.94
 -17   3   2   31.82    5.51
  17  -3   2   13.44    4.17
 -17   3  -2    3.50    3.44
 -17   3  -3    1.16    2.49
 -17   3  -3   11.38    3.93
 -17   3  -4    4.23    3.38
 -17   3  -4    2.55    3.85
 -17   3  -5    3.07    1.82
 -17   3  -5    1.49    3.67
  17  -1  -8   -2.18    3.41
 -17   1   8    8.85    3.57
  17  -1  -7    2.76    3.26
 -17   1   7    3.56    3.52
  17  -1  -6    4.01    3.28
 -17   1   6    9.01    3.58
  17  -1  -5    1.40    2.55
 -17   1   5   -0.76    3.04
  17  -1  -4    3.98    2.95
 -17   1   4    7.61    3.11
 -17   1   3    7.55    3.54
 -17   1  -1   13.00    4.45
 -17   1  -3    4.23    2.21
 -17   1  -3   -2.12    3.79
 -17   1  -4    7.91    3.04
 -17   1  -4   -1.39    3.84
 -17   1  -5    1.52    1.45
 -17   1  -5    1.68    1.46
 -17   1  -5   -0.81    3.52
  17   1  -8    4.61    3.38
 -17  -1   8    0.04    3.43
  17   1  -7    7.18    3.40
 -17  -1   7    1.96    4.88
  17   1  -6    0.82    2.70
 -17  -1   6    0.84    3.10
  17   1  -5    1.17    2.88
 -17  -1   5    6.41    2.97
 -17  -1   3   13.87    4.08
  17   1   0   18.17    4.91
 -17  -1  -2    4.53    3.77
 -17  -1  -3    3.18    2.78
 -17  -1  -3   -1.99    3.55
 -17  -1  -4    3.05    2.46
 -17  -1  -4   -3.63    3.58
 -17  -1  -5    1.69    1.19
 -17  -1  -5   -1.27    3.48
  17   3  -8    4.65    3.46
 -17  -3   8    3.89    3.50
  17   3  -7    3.16    3.02
 -17  -3   7    6.30    3.46
  17   3  -6    9.92    3.43
 -17  -3   6   13.28    3.74
  17   3  -5   11.39    3.83
 -17  -3   5   12.88    3.48
 -17  -3   4   14.81    4.04
  17   3   0   23.31    5.38
 -17  -3  -1   11.70    4.37
 -17  -3  -2    3.48    4.83
 -17  -3  -3    1.84    2.69
 -17  -3  -3   -0.67    3.43
 -17  -3  -4    3.00    1.71
 -17  -3  -4    6.47    4.78
 -17  -3  -5    4.39    3.55
 -17  -5   8    7.25    3.43
  17   5  -7    0.66    2.77
 -17  -5   7   -2.38    2.92
  17   5  -6    0.02    3.28
 -17  -5   6    8.38    2.88
  17   5  -5    4.00    3.15
 -17  -5   5    1.22    2.76
 -17  -5   4    1.45    2.99
  17   5  -1    4.27    3.74
 -17  -5   1    7.54    3.64
 -17  -5   0    3.53    3.43
 -17  -5  -1   -1.50    3.35
 -17  -5  -2   -7.62    3.69
 -17  -5  -3    1.96    2.04
 -17  -5  -3   -1.92    3.14
 -17  -5  -4    1.08    0.83
 -17  -5  -4   -4.09    3.14
 -17  -5  -5   -0.45    2.86
  17   7  -7    5.05    3.23
 -17  -7   7    2.93    3.03
  17   7  -2    9.49    3.81
 -17  -7   0    8.22    3.56
 -17  -7  -1    4.51    3.23
 -17  -7  -2    5.84    3.32
 -17  -7  -3    3.32    3.05
 -17  -7  -4    4.25    2.90
 -17  -7  -5   -1.17    2.75
  17   9  -7   -2.17    2.73
 -17  -9   7   -0.19    3.62
 -17  -9   1   -2.28    2.93
 -17  -9   0   -0.54    2.78
 -17  -9  -1   -3.70    2.92
 -17  -9  -2   -2.59    2.76
 -17  -9  -3    2.55    2.55
 -17  -9  -4    1.16    3.24
 -17 -11   4   10.88    4.28
 -17 -11   2    3.14    2.79
 -17 -11   1    1.94    2.68
 -17 -11   0    0.00    2.45
 -17 -11  -1    1.83    2.47
 -17 -11  -2    3.75    2.48
 -17 -11  -3   -1.86    3.08
 -17 -13   3    8.60    2.76
 -17 -13   2    8.91    3.90
 -17 -13   1    6.24    2.63
 -17 -13   0    6.86    3.19
 -17 -13  -1    1.40    2.98
 -17 -13  -2    2.35    3.09
 -17 -15   2    4.26    2.90
 -17 -15   1    0.02    3.66
 -17 -15   0    2.01    2.96
 -18  12   2    1.68    3.15
 -18  12   1   -4.57    3.34
  18 -10  -4    6.44    3.28
 -18  10   4    0.59    3.57
  18 -10  -3    1.46    3.35
 -18  10   3    8.07    3.43
  18 -10  -2    5.50    4.31
 -18  10   2    5.88    3.51
  18 -10  -1    8.97    4.03
 -18  10   1   12.79    3.61
 -18  10   0    9.35    4.57
 -18  10   0    1.42    3.17
 -18  10  -1    9.40    4.25
  18  -8  -5    6.84    3.40
 -18   8   5    6.25    3.83
  18  -8  -4    1.21    2.95
 -18   8   4    0.18    3.17
  18  -8  -3    5.00    2.98
 -18   8   3    5.21    3.42
  18  -8  -2    2.37    2.85
 -18   8   2   -1.13    2.89
 -18   8   1    3.91    3.10
 -18   8   0   -0.26    3.19
 -18   8  -1    4.56    3.77
 -18   8  -2   -0.44    3.04
 -18   6   6    3.79    3.73
  18  -6  -5   -6.51    4.23
 -18   6   5   -1.18    3.51
  18  -6  -4   -2.84    3.01
 -18   6   4   -1.00    3.27
  18  -6  -3   -5.46    2.83
 -18   6   3    2.82    2.91
  18  -6  -2    0.99    3.11
 -18   6   1    3.01    3.46
 -18   6  -1    7.04    4.22
 -18   6  -2    1.72    2.95
 -18   6  -3    2.30    2.78
  18  -4  -6    5.96    3.51
 -18   4   6    8.25    5.32
  18  -4  -5    4.98    3.18
 -18   4   5    2.88    3.56
  18  -4  -4    4.88    2.88
 -18   4   4    3.65    3.45
  18  -4  -3    8.63    3.34
 -18   4   3   10.67    3.54
 -18   4  -2    4.43    4.10
 -18   4  -3    5.01    3.61
  18  -2  -6   -1.36    3.09
 -18   2   6    0.42    3.36
  18  -2  -5    8.92    2.93
 -18   2   5   -2.48    3.46
  18  -2  -4    0.56    2.82
 -18   2   4   -4.88    3.01
  18  -2  -2    9.49    4.16
 -18   2   2   13.37    4.18
 -18   2  -2   -2.98    3.08
 -18   2  -3    1.86    2.29
 -18   2  -3   -3.64    5.16
  18   0  -6    5.07    3.22
 -18   0   6    9.21    3.76
  18   0  -5    5.39    3.10
 -18   0   5    5.66    3.29
 -18   0   3   14.17    5.73
 -18   0  -3    1.34    2.19
 -18   0  -3    2.97    3.85
  18   2  -6    9.10    3.19
 -18  -2   6   -2.98    4.82
  18   2  -5    2.15    3.20
 -18  -2  -2   -0.57    3.72
 -18  -2  -3    2.66    2.81
 -18  -2  -3    3.08    3.81
  18   4  -6   -0.48    3.20
 -18  -4   6   -0.37    3.11
  18   4  -1    9.22    4.34
 -18  -4  -1   -0.06    3.48
 -18  -4  -2   10.18    4.19
 -18  -4  -3    6.84    2.87
 -18  -4  -3    2.88    3.85
 -18  -6   6    0.52    2.73
 -18  -6   5    5.12    3.03
  18   6  -2    3.49    3.69
 -18  -6   0    1.09    3.33
 -18  -6  -1   -7.42    3.86
 -18  -6  -2    7.30    3.75
 -18  -6  -3    5.75    2.53
 -18  -6  -3   -5.80    3.31
  18   8  -3    2.95    3.44
 -18  -8   1    1.63    3.18
 -18  -8   0    5.22    3.46
 -18  -8  -1   -2.37    4.25
 -18  -8  -2    1.76    3.05
 -18 -10   3    3.78    2.88
 -18 -10   2    8.86    3.25
 -18 -10   1   11.13    4.85
 -18 -10   0   -0.83    2.84
 -18 -10  -1    5.50    3.04
 -19   5   3    3.47    3.31
 -19   5   2    4.18    3.43
 -19   5   1   12.14    4.49
 -19   3   4   -0.41    3.12
  19   3  -1    9.95    4.67
   0   0   0    0.00    0.00
;
_shelx_hkl_checksum              10792

_shelx_fab_file                  
;
    0    0    2   -272.92    -34.09
    0    0    3   -103.26    -46.58
    0    0    4     70.45     -7.50
    0    0    5     57.91     18.40
    0    0    6     33.53     16.91
    0    0    7     15.43      6.98
    0    0    8    -13.34     -3.85
    0    0    9      0.50     13.77
    0    0   10      0.48      0.79
    0    0   11     27.32     -5.08
    0    0   12     -3.69     -0.14
    0    0   13     -9.47      4.15
    0    0   14    -10.11    -10.19
    0    2   14      8.63      0.37
    0    2   13     -4.76    -11.78
    0    2   12    -15.01    -15.74
    0    2   11     15.53     -2.39
    0    2   10     11.79     11.47
    0    2    9     -9.16     11.94
    0    2    8    -18.15    -16.33
    0    2    7     -8.61      3.59
    0    2    6     -7.58     39.33
    0    2    5    -13.67     -3.45
    0    2    4    -29.35     -7.95
    0    2    3    -15.73     14.42
    0    2    2      0.31     -6.76
    0    4   14     15.73      0.46
    0    4   13    -12.07    -10.75
    0    4   12    -20.80     -9.74
    0    4   11     10.42     -4.02
    0    4   10     15.60      7.15
    0    4    9      3.66     13.53
    0    4    8      2.39     -6.99
    0    4    7     -3.02      3.16
    0    4    6     -8.41     15.93
    0    4    5      4.85     -2.14
    0    4    4      1.73     -6.89
    0    4    3    -36.70      0.74
    0    4    2    -52.46    -18.42
    0    4    1     32.49    -20.29
    0    6   14     -5.20      5.23
    0    6   13    -14.56      7.85
    0    6   12     -4.07     14.18
    0    6   11     20.12      2.39
    0    6   10      5.65    -11.91
    0    6    9      2.21      2.61
    0    6    8      0.01     -0.13
    0    6    7      6.66      4.95
    0    6    6      1.40     15.67
    0    6    5     -9.72     21.98
    0    6    4     -8.64     -7.10
    0    6    2    -37.28     -5.29
    0    6    1     -3.07     -3.46
    0    6    0    147.65      1.03
    0    6    3     -2.65     -9.81
    0    8   14    -19.73      7.25
    0    8   13    -10.03      7.80
    0    8   12      6.86     -1.40
    0    8   11     12.47     -5.56
    0    8   10     -7.82      0.61
    0    8    9    -13.28      5.57
    0    8    8      3.54      5.07
    0    8    7     -5.47     -7.14
    0    8    6      1.47     -2.18
    0    8    5      6.56     -0.06
    0    8    4     -3.00      0.36
    0    8    3      1.67      6.61
    0    8    2     -4.90     -4.38
    0    8    1     -0.47     -8.98
    0    8    0      0.98     -0.04
    0   10   14     -2.76     10.69
    0   10   13     -4.94      9.47
    0   10   12     -0.38      3.52
    0   10   11      0.48     -2.63
    0   10   10      5.67      1.19
    0   10    9     -4.89     -2.60
    0   10    8     -3.69     -2.38
    0   10    7      4.45      4.59
    0   10    6      0.55     -1.11
    0   10    5     -4.68     -1.54
    0   10    4     -3.82     -0.60
    0   10    3     -9.27     -2.73
    0   10    2      1.46     -9.37
    0   10    1      5.05     -4.73
    0   10    0    -13.12     -0.68
    0   12   13    -11.24      1.68
    0   12   12     -4.98    -13.88
    0   12   11      6.02    -10.88
    0   12   10     -3.29     -4.92
    0   12    9     -6.30      5.31
    0   12    8      5.07      1.88
    0   12    7      0.51     -4.39
    0   12    6     -4.55     -1.80
    0   12    5      2.13      1.11
    0   12    4      2.79      0.52
    0   12    3     14.69     -7.89
    0   12    2    -11.35     -0.79
    0   12    1    -11.66     -2.79
    0   12    0      1.34     -0.38
    0   14   13     -4.39     -4.87
    0   14   12      5.79     -7.49
    0   14   11     14.36      5.77
    0   14   10      3.09     -6.40
    0   14    9     -4.31     -3.94
    0   14    8      2.82      2.88
    0   14    7     -2.40     -1.84
    0   14    6     -2.21     -5.14
    0   14    5      1.06     -0.18
    0   14    4      0.68     -1.99
    0   14    3      3.26     -0.66
    0   14    2     -2.40     -4.79
    0   14    1      2.61     -1.99
    0   14    0      1.11     -0.17
    0   16   12      2.36    -14.15
    0   16   11     -4.67      6.95
    0   16   10      0.19     12.61
    0   16    9      7.08     -6.58
    0   16    8      3.94     -9.88
    0   16    7      0.49      8.02
    0   16    6     -4.74      2.68
    0   16    5      1.68      0.72
    0   16    4      0.62     -3.79
    0   16    3     -3.96     -4.82
    0   16    2      5.25     -0.33
    0   16    1     -7.96      1.28
    0   16    0      9.22      0.34
    0   18   12     -1.66     -8.13
    0   18   11     -3.80     -4.40
    0   18   10    -12.14     -0.41
    0   18    9     -4.83     -0.66
    0   18    8     -0.86      1.50
    0   18    7      5.75      3.46
    0   18    6      0.57      2.05
    0   18    5     -0.07     -6.58
    0   18    4     -4.31      3.55
    0   18    3     -3.46     -2.13
    0   18    2     -0.01     -0.62
    0   18    1     -1.42    -14.70
    0   18    0      3.55      0.01
    0   20   11      0.99     -7.70
    0   20   10    -12.74     -4.16
    0   20    9      0.40     -5.38
    0   20    8      1.53      0.16
    0   20    7     -7.12      4.67
    0   20    6     -2.02     -2.49
    0   20    5      0.15     -2.77
    0   20    4      2.60      4.77
    0   20    3     -4.02      0.55
    0   20    2      0.87     -5.91
    0   20    1     -1.46     -6.32
    0   20    0     11.09      0.17
    0   22   10     -1.89     -6.76
    0   22    9     -2.75     -1.86
    0   22    8     -0.26      4.17
    0   22    6     -0.25     -4.16
    0   22    5     -2.69     -0.07
    0   22    4      3.85      1.46
    0   22    3      1.73      1.92
    0   22    2      1.51      0.79
    0   22    1     -7.02      3.11
    0   22    0     -1.82      0.39
    0   22    7      2.23      1.14
    0   24   10     -1.95      2.41
    0   24    9      0.03     -6.70
    0   24    8      2.70     -5.69
    0   24    7      6.02      4.00
    0   24    6     -1.60     -2.98
    0   24    5      1.01      1.36
    0   24    4     -3.41      9.86
    0   24    3     -0.72      6.04
    0   24    2     -0.98     -1.79
    0   24    1     -0.07     -6.77
    0   24    0     13.51     -0.14
    0   26    8      0.45      4.81
    0   26    7      3.63     15.80
    0   26    6      3.74      7.71
    0   26    5     -1.90     -3.03
    0   26    4     -4.49      2.35
    0   26    3      2.47      4.94
    0   26    2      0.28      3.44
    0   26    1     -8.89      3.12
    0   26    0      9.64     -0.39
    0   28    7     -4.58      0.93
    0   28    6      3.76      7.53
    0   28    5      5.47      3.91
    0   28    4      1.49      2.40
    0   28    3      2.86     -2.10
    0   28    2     -1.47      1.75
    0   28    1     -2.07      5.03
    0   28    0      0.49     -0.82
    0   30    5      2.12     -1.23
    0   30    4     -1.26     -2.23
    0   30    3      0.37      0.60
    0   30    2      0.24     -0.04
    0   30    1     -1.67     -0.24
    0   30    0      1.51      0.01
    0   32    2      3.82      1.85
    0   32    1     -1.50      5.89
    0   32    0      1.16      0.61
   -1   31    4      0.80      1.77
   -1   31    3     -1.73      8.19
   -1   31    2     -4.16      0.45
   -1   31    1     -2.53     -2.26
    1   31    0     -1.31      2.06
    1   31    1     -1.23      5.69
    1   31    2      4.62      5.61
    1   31    3      6.33     -5.60
    1   31    4      4.60      0.71
   -1   29    6      0.17      2.94
   -1   29    5     -2.95      1.15
   -1   29    4     -8.35     -2.56
   -1   29    3     -3.27      1.48
   -1   29    2     -0.41      5.59
   -1   29    1     -2.50     -4.85
    1   29    0     -1.42     -0.65
    1   29    1     -6.22      6.12
    1   29    2     -1.68      2.56
    1   29    3      1.45     -0.87
    1   29    4      2.63      6.07
    1   29    5      1.02      1.06
    1   29    6      0.74     -0.47
   -1   27    8      1.26    -10.28
   -1   27    7     -2.72      9.70
   -1   27    6      1.51      6.49
   -1   27    5      6.29      0.14
   -1   27    4     -2.21     -7.49
   -1   27    3     -3.34     -2.74
   -1   27    2     -0.57      2.91
   -1   27    1     -3.24     -4.65
    1   27    0     -0.51      4.67
    1   27    1     -0.10      4.12
    1   27    2     -1.92     -0.74
    1   27    3     -4.83     -0.12
    1   27    4     -2.16      2.89
    1   27    5      5.74      0.70
    1   27    6      5.00      1.82
    1   27    7      5.52     -0.39
    1   27    8     -5.05     -2.06
   -1   25    9      3.49     -1.62
   -1   25    8     -3.99     -1.56
   -1   25    7      1.08      2.69
   -1   25    6      1.54     -0.52
   -1   25    5      2.76     -3.52
   -1   25    4      8.37      5.13
   -1   25    3      3.72      4.40
   -1   25    2     -1.75     -0.02
   -1   25    1     -4.74      3.47
    1   25    0     -0.82     -1.70
    1   25    1     -5.32      3.16
    1   25    2      2.38     -1.61
    1   25    3      2.29     -5.94
    1   25    4      1.68      0.42
    1   25    5      0.54      3.18
    1   25    6      2.08     -5.95
    1   25    7      0.14     -0.11
    1   25    8      5.18      4.65
    1   25    9      6.97     -1.56
   -1   23   10     -1.43      5.30
   -1   23    9      0.17      3.23
   -1   23    8      3.74      0.17
   -1   23    7     -0.21      0.26
   -1   23    6      0.06      3.20
   -1   23    5     -0.35      0.59
   -1   23    4      3.20      3.64
   -1   23    3     -1.11     -0.56
   -1   23    2      2.91      4.11
   -1   23    1      1.52     -8.30
    1   23    0      7.62     -1.21
    1   23    1      0.00     -0.14
    1   23    2      2.18     -7.69
    1   23    3     -5.72     -0.40
    1   23    4     -1.10      4.15
    1   23    5     -0.20      1.14
    1   23    6     -0.06     -3.02
    1   23    7      0.12     -2.56
    1   23    8     -1.70      0.95
    1   23    9      1.58     -3.02
    1   23   10      0.28     -0.90
   -1   21   11      0.52      4.52
   -1   21   10     -8.02      2.38
   -1   21    9     -7.34     -1.53
   -1   21    8      1.18     -0.11
   -1   21    7      0.84      2.43
   -1   21    6     -3.83     -4.00
   -1   21    5      2.39      1.68
   -1   21    4     -2.49      1.52
   -1   21    3     -3.61      1.87
   -1   21    2     -0.18      2.43
   -1   21    1      1.67    -13.05
    1   21    0      1.24      6.30
    1   21    1     -5.21     -2.05
    1   21    2      2.27     -3.17
    1   21    3     -4.56      1.25
    1   21    4      0.67      6.71
    1   21    5     -1.71     -4.87
    1   21    6     -0.45     -3.00
    1   21    7      5.36      7.73
    1   21    8     -0.67      2.15
   -1   19   11     -0.72     -8.61
   -1   19   10    -13.97     12.15
   -1   19    9      0.99      3.01
   -1   19    8      7.08     -8.16
   -1   19    7      5.80     -3.38
   -1   19    6     -1.46     -2.48
   -1   19    5     -7.00      4.05
   -1   19    4      2.96     -2.36
   -1   19    3     -1.64     -2.98
   -1   19    2      0.57      6.70
   -1   19    1      0.19     -3.66
    1   19    0     11.40     -5.12
    1   19    1     -2.37      5.39
    1   19    2     -0.36     -3.91
    1   19    3     -1.27      0.04
    1   19    4      2.01     -2.08
    1   19    5      6.96     -5.08
    1   19    6      2.16     -0.39
    1   19    8     -5.51     -0.32
    1   19    9      1.40      5.90
    1   19   10     -3.69      3.05
    1   19   11      1.79      1.01
   -1   17   10     -5.67     11.90
   -1   17    9      6.70     -1.77
   -1   17    8      4.89     -4.58
   -1   17    7     -5.34     -1.38
   -1   17    6     -0.36     -0.47
   -1   17    5      4.72     -5.08
   -1   17    4      3.93      2.26
   -1   17    3      2.72      3.28
   -1   17    2      7.40     -0.74
   -1   17    1     -2.99      4.11
    1   17    0     -0.22    -14.81
    1   17    1      2.50     -3.76
    1   17    2     -3.07      0.19
    1   17    3     -6.62     -4.86
    1   17    4     -1.66      0.03
    1   17    5     -0.14     -2.97
    1   17    6     -1.44     -4.80
    1   17    7      1.02      9.82
    1   17    8      3.65      6.63
    1   17    9      0.01    -11.05
    1   17   10      3.41    -14.55
    1   17   11     15.00      3.64
    1   17   12      1.85      7.29
   -1   15   13     -3.64      7.21
   -1   15   11     -0.85    -14.34
   -1   15   10     -9.14     -2.69
   -1   15    9    -11.14      7.69
   -1   15    8      0.99      0.59
   -1   15    7      7.29     -4.21
   -1   15    6     -7.00     -1.10
   -1   15    5     -1.61      0.68
   -1   15    4      2.14     -3.51
   -1   15    3     12.47     -0.28
   -1   15    2     -9.00     -5.24
   -1   15    1     -9.55    -17.66
    1   15    0      0.62      6.13
    1   15    1      4.40      0.20
    1   15    2      5.82      7.07
    1   15    3     -5.10     -2.24
    1   15    4     -1.70      3.87
    1   15    5     -0.23     -2.85
    1   15    6      6.53      4.65
    1   15    7     -1.24     -1.63
    1   15    8     -2.37      1.29
    1   15    9     -4.32      9.01
    1   15   10     -4.64      9.45
    1   15   11      8.07      0.85
    1   15   12     -0.62     -7.93
    1   15   13     -1.89     -0.67
   -1   13   13     13.74      5.80
   -1   13   12     10.25     -2.48
   -1   13   11     -4.77      1.01
   -1   13   10      1.71      8.99
   -1   13    9      7.75     -9.25
   -1   13    8     -4.53    -17.10
   -1   13    7     -8.70      2.14
   -1   13    6     -0.68      2.79
   -1   13    5     -3.04      2.10
   -1   13    4     -2.04      5.50
   -1   13    3      0.21     -1.84
   -1   13    2      2.68     -0.24
   -1   13    1     -3.55     -5.94
    1   13    0     -0.39     -9.98
    1   13    1      2.23     -1.67
    1   13    2      1.04     -2.74
    1   13    3     -5.92      5.52
    1   13    4     -0.74      2.03
    1   13    5      4.28     -0.90
    1   13    6     -1.62      2.38
    1   13    7      2.32      2.18
    1   13    8     -2.93      1.47
    1   13    9     -2.13     -3.37
    1   13   10      1.69     -0.54
    1   13   11    -10.63      6.04
    1   13   12    -16.10     -7.45
    1   13   13     -3.67     -7.14
   -1   11   13     -6.73      5.41
   -1   11   12      8.54     -0.17
   -1   11   11      7.09     -1.66
   -1   11   10     -1.33     -7.54
   -1   11    9     -7.17     -2.66
   -1   11    8     -3.38      9.97
   -1   11    7      1.34     -2.54
   -1   11    6     -0.88     -1.05
   -1   11    5     -2.72      6.55
   -1   11    4      1.60     -1.76
   -1   11    3     -0.97      6.87
   -1   11    2     -1.98     -2.29
   -1   11    1      0.32      5.61
    1   11    0      0.40     -1.09
    1   11    1     -0.14     -3.04
    1   11    2      1.66      3.90
    1   11    3      5.78     -3.02
    1   11    4     -6.63      1.93
    1   11    5     -0.08      2.91
    1   11    6      1.08     -1.56
    1   11    7      0.94     -0.26
    1   11    8      3.15     -1.50
    1   11    9    -13.49      6.66
    1   11   10      0.35     -3.62
    1   11   11     12.19     -7.03
    1   11   12      0.86    -11.75
    1   11   13     -1.47      0.20
   -1    9   14     -2.84      9.81
   -1    9   13      4.54     -3.65
   -1    9   12      6.32    -10.11
   -1    9   11      7.67     -1.35
   -1    9   10     -1.81     -2.19
   -1    9    9    -10.92      2.20
   -1    9    8      1.10      4.19
   -1    9    7      1.54     -1.32
   -1    9    6      4.04     -2.07
   -1    9    5     -2.66     11.69
   -1    9    4     -0.52     -0.77
   -1    9    3     10.32     -0.46
   -1    9    2    -11.41    -10.84
   -1    9    1    -10.13     -9.36
    1    9    0     20.28    -12.11
    1    9    1      1.91     21.02
    1    9    2    -17.82     12.36
    1    9    3      5.65    -12.15
    1    9    4      4.32     -1.43
    1    9    5      0.56      7.04
    1    9    6     -4.07      3.38
    1    9    7     -5.22     -2.56
    1    9    8     -4.03     -3.43
    1    9    9      2.82      2.77
    1    9   10      6.40     -8.30
    1    9   11      2.49     -8.19
    1    9   12    -16.03      7.75
    1    9   13     -6.07      9.79
    1    9   14     12.42     -7.78
   -1    7   14      1.87     -7.85
   -1    7   13     -7.16    -15.37
   -1    7   12     -2.24     -2.16
   -1    7   11      5.93      5.21
   -1    7   10     -2.08      2.15
   -1    7    9     -7.81     -4.14
   -1    7    8      4.06     -2.42
   -1    7    7      8.90     -1.29
   -1    7    6      6.94      1.66
   -1    7    5     -0.35     -1.94
   -1    7    4     -2.32     -3.52
   -1    7    3     -8.26     -5.42
   -1    7    2     -3.10     -5.07
   -1    7    1     13.40     14.30
    1    7    0      6.18      7.50
    1    7    1     11.24     -8.57
    1    7    2    -10.35     -7.22
    1    7    3     -1.76     -3.76
    1    7    4     -0.72     -2.49
    1    7    5     -2.11     -0.14
    1    7    6     -1.91      3.03
    1    7    7      1.90      3.91
    1    7    8     -2.66     -1.63
    1    7    9      3.26      2.16
    1    7   10     14.83     -4.01
    1    7   11      7.01     -4.43
    1    7   12     -5.34     10.19
    1    7   13    -15.94     14.27
    1    7   14      0.23      5.47
   -1    5   14    -15.41      5.08
   -1    5   13    -13.62      5.10
   -1    5   12      1.24    -11.00
   -1    5   11      7.12     -5.32
   -1    5   10     -7.20     13.03
   -1    5    9     -6.01     13.39
   -1    5    8     -6.51     -1.97
   -1    5    7     -1.67     -4.10
   -1    5    6     -2.12      6.56
   -1    5    5      4.61     -5.59
   -1    5    4     -6.30      0.09
   -1    5    3     -1.74     22.32
   -1    5    2     15.43     -0.70
   -1    5    1     -5.53    -11.18
    1    5    0     -6.25     -7.80
    1    5    1     -4.02    -14.09
    1    5    2     19.88      2.25
    1    5    3     10.22     -1.45
    1    5    4     -4.31     -5.29
    1    5    5     -1.40     -5.91
    1    5    6      4.73      0.40
    1    5    7     -6.25     -1.41
    1    5    8     -8.41     -0.72
    1    5    9     -6.01      2.41
    1    5   10     11.21     -2.07
    1    5   11     14.38     -2.23
    1    5   12    -10.14     -3.63
    1    5   13    -10.61    -13.04
    1    5   14     -5.32     -0.41
   -1    3   14    -11.53     -1.61
   -1    3   13    -16.24     -0.01
   -1    3   12     -2.19     -2.78
   -1    3   11     37.89      8.03
   -1    3   10      6.92     -9.02
   -1    3    9    -21.35     10.11
   -1    3    8      1.10      4.10
   -1    3    7     34.21    -43.38
   -1    3    6     37.39    -72.30
   -1    3    5      6.11     -4.29
   -1    3    4     11.49     21.62
   -1    3    3    -10.79     -9.54
   -1    3    2    -65.85    -52.82
    1    3    1     65.30     35.67
    1    3    2    -91.92     18.00
    1    3    3    -47.73    -37.41
    1    3    4     12.66    -40.02
    1    3    5      6.56     31.59
    1    3    6    -32.43     92.43
    1    3    7    -19.58     38.17
    1    3    8      4.39    -17.79
    1    3    9     15.61    -13.68
    1    3   10    -10.52      1.85
    1    3   11      5.65     -5.05
    1    3   12     -3.77     13.02
    1    3   13      3.68      5.22
    1    3   14     -4.51    -12.57
   -1    1   14      0.08      6.71
   -1    1   13    -30.41    -34.82
   -1    1   12    -21.23    -44.87
   -1    1   11     25.82     21.69
   -1    1   10     15.75     70.95
   -1    1    9    -30.83     51.00
   -1    1    8    -29.78    -32.23
   -1    1    7      6.55    -44.23
   -1    1    5     -2.95     32.38
   -1    1    4     -9.55     18.09
   -1    1    3     -8.93      6.93
   -1    1    2     -2.55     -1.73
    1    1    2     -1.60     -2.76
    1    1    3     -7.55      8.71
    1    1    4    -12.00    -30.58
    1    1    5    -12.75    -33.03
    1    1    6    -15.41     35.36
    1    1    7     -8.84     51.36
    1    1    8     -1.36     13.53
    1    1    9     21.23    -20.82
    1    1   10     18.63    -35.26
    1    1   11     20.56    -11.15
    1    1   12      7.63     23.51
    1    1   13      3.08     18.79
    1    1   14      8.10     -5.99
   -1   11   14    -12.05      1.19
   -1   15   12      2.31     -9.86
   -1   17   12      8.76    -24.30
   -1   17   11     -5.68      6.49
   -1   19   12     20.07    -30.18
    1   19    7     -2.22      3.67
    1   21    9     -5.86    -15.75
    1   21   10    -10.73     -7.20
    1   21   11      2.11      2.53
   -2   32    2     -2.47      2.22
   -2   32    1     -3.12     -1.28
    2   32    0     -3.26      0.56
    2   32    1     -1.10     -0.69
   -2   30    5      5.55      1.98
   -2   30    4     -1.96     -2.19
   -2   30    3     -1.98     -1.23
   -2   30    2     -3.05     -1.66
   -2   30    1     -3.27     -2.16
    2   30    0     -0.40     -1.82
    2   30    1      3.89      0.22
    2   30    2     -0.56      2.42
    2   30    3     -2.11     -2.71
    2   30    4     -1.24      1.69
    2   30    5      1.29      2.04
   -2   28    7      4.70     -3.71
   -2   28    6     -0.85     -8.61
   -2   28    5      5.83      2.63
   -2   28    4      7.38      5.01
   -2   28    3     -1.32      3.02
   -2   28    2      2.74      1.98
   -2   28    1     -0.94     -0.79
    2   28    0     -4.38      3.53
    2   28    1     -3.77      9.72
    2   28    2      8.40     -6.18
    2   28    3      5.23    -11.04
    2   28    4      2.50     -0.59
    2   28    5     -2.96     -2.17
    2   28    6     -6.76     -7.95
    2   28    7     -4.60     -4.99
   -2   26    8      0.16      5.14
   -2   26    7     -5.06    -11.97
   -2   26    6     -9.21     -8.55
   -2   26    5     -3.02      5.08
   -2   26    4      0.79      4.33
   -2   26    3     -1.81     -4.48
   -2   26    2     -3.34     -1.50
   -2   26    1      3.05    -10.29
    2   26    0     -3.76     -4.53
    2   26    1      1.28     -2.28
    2   26    2      2.56      0.22
    2   26    3      0.12      1.27
    2   26    4      2.30      0.36
    2   26    5     -5.56     -5.47
    2   26    6      1.63    -10.27
    2   26    7      7.50     -9.36
    2   26    8      6.93      2.45
   -2   24    9    -11.98     11.36
   -2   24    8     -2.26      5.58
   -2   24    7     -6.36     -4.49
   -2   24    6     -0.19     -4.77
   -2   24    5      1.64      1.47
   -2   24    4     -0.49     -6.45
   -2   24    3     -6.71     -3.17
   -2   24    2     -0.61      5.50
   -2   24    1      4.77     -0.09
    2   24    0     -3.82      2.04
    2   24    1     -2.79      2.43
    2   24    2      1.98     -3.83
    2   24    3     -2.36     -1.24
    2   24    4      1.44      1.66
    2   24    5      5.15     -3.67
    2   24    6      0.76      1.72
    2   24    7     -5.83     10.38
    2   24    8     -6.01      4.50
    2   24    9      6.99    -16.96
   -2   22   10     -9.82      4.24
   -2   22    9      4.09      5.07
   -2   22    8      7.18     -4.07
   -2   22    7      2.33     -1.07
   -2   22    6      1.33     -6.79
   -2   22    5     -5.86      0.78
   -2   22    4      0.17      6.25
   -2   22    3      2.52     -3.67
   -2   22    2      6.41      3.87
   -2   22    1     -1.80     -0.81
    2   22    0     -3.58     -1.56
    2   22    1     -0.39      5.12
    2   22    2      6.29      1.16
    2   22    3      3.05      2.56
    2   22    4     -2.55     -3.44
    2   22    5     -1.39     -1.18
    2   22    6     -3.12      5.98
    2   22    7     -3.20      6.58
    2   22    8      3.07      2.67
    2   22    9     12.41      1.69
    2   22   10     -7.70      3.02
   -2   20   10     12.17     11.77
   -2   20    9      7.02      6.66
   -2   20    8     -0.18      3.38
   -2   20    7      7.22     -5.27
   -2   20    6      1.04      2.10
   -2   20    5      1.75      1.96
   -2   20    4      1.45      6.66
   -2   20    3      2.85      0.20
   -2   20    2      4.11      6.35
   -2   20    1      2.46     -0.31
    2   20    0     -2.04     -2.53
    2   20    1      2.18      7.49
    2   20    2      1.14      0.32
    2   20    3     -5.09     -2.71
    2   20    4      2.72     -0.48
    2   20    5     -2.10      1.60
    2   20    6     -5.54      0.05
    2   20    7      0.45      6.06
    2   20    8      3.55      7.43
    2   20    9      6.41     -5.40
    2   20   10      6.09     -6.29
    2   20   11     -6.43     11.12
   -2   18   12     -6.66      6.69
   -2   18   11      5.35     15.36
   -2   18   10      2.19      0.06
   -2   18    9     -8.25     -7.93
   -2   18    8     -5.37     -0.12
   -2   18    7      0.10      3.58
   -2   18    6     -1.84     -1.73
   -2   18    5      0.23      3.11
   -2   18    4      1.89      1.22
   -2   18    3      2.58      3.44
   -2   18    2     -4.21     -0.63
   -2   18    1     -0.91     -6.61
    2   18    0      1.53      0.92
    2   18    1     -2.89      6.14
    2   18    2      3.32      0.04
    2   18    3     -5.26     -0.53
    2   18    4      0.92      0.54
    2   18    5     -1.98      5.47
    2   18    6      3.57      0.55
    2   18    7      0.21     -0.54
    2   18    8     -1.92     -2.13
    2   18   10      2.38      9.82
    2   18   11     20.97      4.80
    2   18   12     10.94      0.78
   -2   16   12     11.96     -9.72
   -2   16   11      2.28     -4.30
   -2   16   10     -7.94     -1.57
   -2   16    9      5.72      3.90
   -2   16    8      6.90     -3.31
   -2   16    7     -5.85     -1.76
   -2   16    6      0.15     -1.39
   -2   16    5     -4.05     -1.40
   -2   16    4     -0.99     -0.21
   -2   16    3      5.04      0.06
   -2   16    2     -0.58      5.34
   -2   16    1      3.48    -10.22
    2   16    0     -5.19     -2.30
    2   16    1      3.40      2.93
    2   16    2      0.20     -7.21
    2   16    3     -2.35     -0.71
    2   16    4     -3.03      0.02
    2   16    5      0.86     -3.04
    2   16    6      5.78      4.70
    2   16    7     -0.86     -2.07
    2   16    8     -4.57      0.21
    2   16    9      3.20      0.77
    2   16   12    -15.43     -7.34
   -2   14   11     -4.68      4.42
   -2   14   10      4.22      1.67
   -2   14    9      2.24     -0.77
   -2   14    8     -2.17      0.40
   -2   14    7      2.61     -1.95
   -2   14    6      7.25     -2.85
   -2   14    5      7.92     -2.24
   -2   14    4      3.88      2.21
   -2   14    3     -4.16      2.56
   -2   14    2      1.23     -6.37
   -2   14    1      2.83      5.21
    2   14    0      7.26    -22.09
    2   14    1     -1.89    -10.37
    2   14    2     -5.64     12.09
    2   14    3     -7.36     -2.37
    2   14    4     -0.01     -2.74
    2   14    5      4.55      2.14
    2   14    6      2.63      5.00
    2   14    8     -2.66     -9.13
    2   14    9     -0.87     -3.07
    2   14   10     -2.11      0.14
    2   14   11     -0.35      2.74
    2   14   12     -3.49     -3.29
    2   14   13      9.70      1.10
   -2   12   13     -5.20     -4.35
   -2   12   11      5.77     -2.40
   -2   12   10      2.76     -8.29
   -2   12    9     -1.36      0.17
   -2   12    8      2.85     -0.46
   -2   12    7      0.88     -6.54
   -2   12    6     -1.64      1.40
   -2   12    5     -5.23     -0.90
   -2   12    4      3.96     -8.01
   -2   12    3      6.55      7.22
   -2   12    2      3.87    -14.84
   -2   12    1      4.89    -13.85
    2   12    0     -2.02     19.20
    2   12    1      4.42     27.10
    2   12    2      2.60     20.66
    2   12    3     -2.64     -7.14
    2   12    4     -0.13      2.07
    2   12    5    -10.06      2.74
    2   12    6     -1.08     -4.98
    2   12    7     -2.94      2.53
    2   12    8     -8.51     -3.36
    2   12    9      0.79     -0.76
    2   12   10      0.59      3.53
    2   12   11      2.05     -2.99
    2   12   12      0.73      2.52
    2   12   13      3.79      5.84
   -2   10   13      9.67    -16.28
   -2   10   12      3.82      6.74
   -2   10   11      0.09     10.00
   -2   10   10     -7.76      2.32
   -2   10    9      4.69     -1.15
   -2   10    8      9.27     -1.62
   -2   10    7     -0.47      0.17
   -2   10    6      3.02      4.94
   -2   10    5      3.61     -0.77
   -2   10    4     -0.65      2.04
   -2   10    3      3.31     -1.42
   -2   10    2     -3.52     -4.87
   -2   10    1      9.28      1.42
    2   10    0     10.81      2.39
    2   10    1     -3.31     -4.12
    2   10    2     -5.95      7.80
    2   10    3      6.69      4.83
    2   10    4     -5.28      0.13
    2   10    5     -4.19      2.61
    2   10    6      4.50      5.82
    2   10    7      0.28     -3.03
    2   10    8     -1.70     -0.12
    2   10    9     -0.36      6.78
    2   10   10      4.29     -4.62
    2   10   11     -3.42     -9.88
    2   10   12     -5.44     -0.45
    2   10   13     -6.02     16.95
   -2    8   13      1.97     12.47
   -2    8   12     -8.71     -4.81
   -2    8   11    -19.19     -6.53
   -2    8   10     -8.04     -5.80
   -2    8    9     10.70      0.48
   -2    8    8      2.18      6.00
   -2    8    7     -0.95      3.02
   -2    8    6     -9.48     -3.68
   -2    8    5     -4.30     -8.09
   -2    8    4      9.45     -3.38
   -2    8    3     -0.11      5.17
   -2    8    2      5.09     -8.05
   -2    8    1     -3.66     -7.43
    2    8    0      8.87     -9.58
    2    8    1     -1.92      1.99
    2    8    2      6.26      9.95
    2    8    3      0.34     -0.22
    2    8    4     -5.29     -2.55
    2    8    5     -4.98     -3.84
    2    8    6     -0.96     -6.55
    2    8    7      2.87      0.77
    2    8    8     -4.12      0.36
    2    8    9     -2.77     12.96
    2    8   10     11.75     -1.81
    2    8   11      8.47    -10.57
    2    8   12     -8.26    -12.23
    2    8   13    -10.09     -5.29
    2    8   14      3.84      9.40
   -2    6   14     -3.44    -10.06
   -2    6   13     13.76     -7.71
   -2    6   12      5.68    -10.33
   -2    6   10     -3.18      8.06
   -2    6    9    -11.28     -9.17
   -2    6    8     -4.18     11.72
   -2    6    7     -2.19      1.32
   -2    6    6     17.73    -24.10
   -2    6    5      6.46    -10.61
   -2    6    4     -3.93     21.28
   -2    6    3     -6.53     14.66
   -2    6    2     -7.90    -25.43
   -2    6    1      0.75    -17.20
    2    6    0    -14.44    -68.99
    2    6    1      8.68      2.93
    2    6    2    -15.73     23.45
    2    6    3    -12.23    -22.11
    2    6    4      3.15    -18.38
    2    6    5      6.12     16.23
    2    6    6     -6.44     28.00
    2    6    7     -3.67     -2.17
    2    6    8      2.74    -11.38
    2    6    9      4.51      3.92
    2    6   10      3.72      2.84
    2    6   11     -0.02    -17.49
    2    6   12     -9.18     10.90
    2    6   13      9.73     14.75
    2    6   14      7.91     -9.49
   -2    4   14     -8.43      8.37
   -2    4   13    -15.84    -10.79
   -2    4   12      4.90    -14.73
   -2    4   11     12.17      8.29
   -2    4   10     -1.41     13.89
   -2    4    9    -16.93      5.94
   -2    4    8    -12.73     -6.31
   -2    4    7      2.81     -4.35
   -2    4    6      1.99      2.38
   -2    4    5     -0.30      4.00
   -2    4    4      8.93      7.15
   -2    4    3      6.55     -1.06
   -2    4    2     -7.03    -13.70
   -2    4    1    -16.82      4.77
    2    4    0     17.43    -17.71
    2    4    1      7.38    -23.31
    2    4    2      0.26     12.50
    2    4    3      1.99     14.50
    2    4    4     -1.28     -1.14
    2    4    5     -2.41     -3.99
    2    4    6     -2.48      7.65
    2    4    7      2.09      0.68
    2    4    8      1.15      5.09
    2    4    9     10.05      3.06
    2    4   10      1.31     -2.17
    2    4   11      7.72      2.26
    2    4   12     14.27      7.46
    2    4   13     -1.94      9.59
    2    4   14     -8.25     -1.82
   -2    2   13    -26.31     -4.51
   -2    2   12      7.86    -13.19
   -2    2   11     21.08      9.20
   -2    2   10      5.54     14.70
   -2    2    9     -6.47      2.21
   -2    2    8     -4.45    -11.53
   -2    2    7      9.15      7.69
   -2    2    6      7.39      1.74
   -2    2    5      1.79     -5.81
   -2    2    4      2.36     -5.86
   -2    2    3     17.42     23.18
   -2    2    2     30.32     59.96
   -2    2    1    -11.21      6.09
    2    2    1    -43.51     28.39
    2    2    2     34.84    -21.43
    2    2    3     39.83    -23.24
    2    2    4     -1.09     -4.82
    2    2    5    -13.03      1.21
    2    2    6     12.56      0.47
    2    2    7     12.74      6.30
    2    2    8    -10.04     10.91
    2    2    9     -4.56    -10.67
    2    2   10      5.92    -13.11
    2    2   11     24.19     -3.75
    2    2   12     13.04      6.22
    2    2   13    -12.73     -2.96
    2    2   14    -15.25     -5.67
   -2    0   14      0.75     -5.31
   -2    0   13     -7.35     11.78
   -2    0   12    -16.27     -2.88
   -2    0   11      2.68      2.84
   -2    0   10     -6.07    -28.30
   -2    0    9    -19.33    -11.80
   -2    0    8      6.15      3.24
   -2    0    7      6.95    -44.77
   -2    0    6     -1.99    -61.13
   -2    0    5    -15.43    -10.35
   -2    0    4     -7.01     20.51
   -2    0    3     24.96      3.56
   -2    0    2     28.69    -59.61
    2    0    1    -30.14    -59.16
    2    0    2     50.33     19.28
    2    0    3     11.11     -4.11
    2    0    4     16.08    -34.05
    2    0    5    -32.57     11.64
    2    0    6    -86.72     65.29
    2    0    7    -23.89     13.62
    2    0    8     42.13    -24.32
    2    0    9     15.89    -21.67
    2    0   10    -13.51      8.98
    2    0   11     -4.06    -12.67
    2    0   12    -11.70      3.27
    2    0   13      7.18    -13.21
    2    0   14     -2.73    -12.06
   -2    2   14    -22.83      7.90
   -2    6   11      3.10     19.85
   -2    8   14     -4.94     14.29
   -2   10   14     10.13    -11.36
   -2   12   12      3.33      2.41
   -2   14   13      2.60     -4.65
   -2   14   12     -2.20     -6.29
    2   14    7      4.31      4.55
   -2   16   13     -2.66     -1.50
    2   16   10     -3.42      1.82
    2   16   11     -9.03     -2.15
    2   18    9     -5.78     -5.68
   -2   20   11      6.26      6.49
   -2   24   10     -9.91      3.71
   -3   31    3     -6.23      1.45
   -3   31    2      2.97      0.38
   -3   31    1      6.41      1.35
    3   31    0     -2.24     -1.68
    3   31    1     -0.27      9.42
    3   31    2      6.78      0.37
    3   31    3      3.08     -7.00
   -3   29    6      2.98     -8.49
   -3   29    5      7.42     -7.99
   -3   29    4     -2.88      3.80
   -3   29    3     -1.78      6.10
   -3   29    2     -2.13    -10.79
   -3   29    1      1.47     -4.05
    3   29    0      3.46     -7.43
    3   29    1     -0.27     -4.70
    3   29    2     -2.22      1.29
    3   29    3      4.09      0.17
    3   29    4      2.67     -3.75
    3   29    5    -12.02     -2.50
    3   29    6     -2.58     -4.56
   -3   27    8      3.10     15.93
   -3   27    7      3.19     -0.77
   -3   27    6      0.96    -10.32
   -3   27    5     -7.87     -7.31
   -3   27    4     -7.94     -1.75
   -3   27    3     -1.77      6.31
   -3   27    2      0.10     -0.38
   -3   27    1     -0.81     -2.79
    3   27    0      0.92      1.02
    3   27    1      3.04      1.18
    3   27    2      4.36      0.63
    3   27    3      2.19     -3.28
    3   27    4     -1.83      6.14
    3   27    5     -2.20      6.43
    3   27    6     -0.98     -2.67
    3   27    7     -4.40     -3.80
   -3   25    9      1.47     -4.61
   -3   25    8     21.82      0.16
   -3   25    7      8.96     -1.74
   -3   25    6      6.56     -6.30
   -3   25    5      3.77      1.36
   -3   25    4     -8.34     10.69
   -3   25    3     -8.58      1.95
   -3   25    2     13.21      1.04
   -3   25    1      7.36     -5.51
    3   25    0    -18.64     -8.47
    3   25    1     -6.72      3.00
    3   25    2     10.90      4.43
    3   25    3      8.90      1.26
    3   25    4     -2.00     -5.45
    3   25    5    -12.01     -3.61
    3   25    6    -13.49      3.51
    3   25    7     -8.85      0.49
    3   25    8      1.12     -4.78
   -3   23    9      0.60      4.60
   -3   23    8     -4.10      6.77
   -3   23    7      7.71      1.94
   -3   23    6     -0.36     -2.99
   -3   23    5     -2.54     -1.04
   -3   23    4     -4.40     -0.96
   -3   23    3      6.59     -3.63
   -3   23    2      0.66      1.81
   -3   23    1     -2.92      0.51
    3   23    0     -6.21      0.28
    3   23    1      2.39      1.91
    3   23    2      3.40     -0.89
    3   23    3      5.00      4.59
    3   23    4      3.45     -0.67
    3   23    5     -9.56     -1.50
    3   23    6     -7.53     -3.12
    3   23    7     -1.21     -0.51
    3   23    8     -2.09      1.47
    3   23    9     -2.02      3.22
    3   23   10     -7.90     -0.17
   -3   21   11      4.72     14.12
   -3   21   10      1.36    -10.21
   -3   21    9      9.35    -13.21
   -3   21    8      3.87     -1.92
   -3   21    7     -4.39     -1.56
   -3   21    6      2.45      1.08
   -3   21    5      4.49     -1.75
   -3   21    4     -0.08     -2.95
   -3   21    3     -0.50      0.73
   -3   21    2      5.90      6.08
   -3   21    1      4.47      5.74
    3   21    0     -2.96     -3.33
    3   21    1     -3.97      5.84
    3   21    2      0.41     -1.32
    3   21    3      6.23     -0.56
    3   21    4      3.31      1.19
    3   21    5     -1.17      3.51
    3   21    6     -2.00      1.68
    3   21    7      0.19     -0.92
    3   21    8      3.00     -0.39
    3   21    9      5.87     -7.46
    3   21   10     10.06     -0.07
   -3   19   12      3.98     -0.88
   -3   19   11      4.06      4.29
   -3   19   10     -5.52     -7.49
   -3   19    9     -7.73     -1.62
   -3   19    8      4.69     -2.58
   -3   19    7     -4.30     -4.24
   -3   19    6      0.69      2.01
   -3   19    5      0.92      0.81
   -3   19    4      1.01     -0.09
   -3   19    3      0.99     -7.40
   -3   19    2     -1.19      2.51
   -3   19    1      2.03     -2.13
    3   19    0     -7.44      1.55
    3   19    1      0.97     -2.71
    3   19    2     -0.22     -6.23
    3   19    3      2.25      1.24
    3   19    4      0.37      0.37
    3   19    5     -5.43      2.23
    3   19    6     -3.05      2.93
    3   19    7     -5.23     -1.98
    3   19    8     -0.63      1.40
    3   19    9      6.41     -4.25
    3   19   10      1.70     -0.71
    3   19   11     -4.43     -4.90
   -3   17   11     -9.30     11.20
   -3   17   10      2.28      5.91
   -3   17    9      3.27     -1.65
   -3   17    8     -2.15     -4.92
   -3   17    7      6.53      1.26
   -3   17    6      1.92     -0.02
   -3   17    5      3.30     -0.92
   -3   17    4      0.35     -1.11
   -3   17    3     -0.42      2.76
   -3   17    2      0.02      6.78
   -3   17    1      4.24      0.76
    3   17    0      0.88      4.77
    3   17    1     -3.86      9.20
    3   17    2     -2.67     -1.16
    3   17    3     -8.49      0.54
    3   17    4      0.59      2.97
    3   17    5      6.75      1.37
    3   17    6      3.87      4.32
    3   17    7      0.55      4.70
    3   17    8     -3.48     -0.66
    3   17    9      5.70     -9.17
    3   17   10     -9.10     -9.36
    3   17   11    -15.37      7.21
    3   17   12    -16.24     16.07
   -3   15   13    -21.53    -12.05
   -3   15   12    -10.14     10.45
   -3   15   11     18.57     19.70
   -3   15   10     14.48     -6.13
   -3   15    9     -6.96    -18.28
   -3   15    8     -9.93     -5.88
   -3   15    7     -2.41      3.09
   -3   15    6     -2.86      3.56
   -3   15    5     -5.33     -2.09
   -3   15    4      0.57     -0.62
   -3   15    3     -0.32      3.35
   -3   15    2      1.34     -5.01
   -3   15    1      0.56     -2.45
    3   15    0      1.39      5.10
    3   15    1      0.01      8.04
    3   15    2      2.01     -0.31
    3   15    3     -1.13     -2.54
    3   15    4     -3.20      0.29
    3   15    5     -5.87      8.20
    3   15    6      2.81     -5.06
    3   15    7      3.37     -1.79
    3   15    8     -4.16     -1.24
    3   15    9     -1.29     -2.21
    3   15   10      8.09      5.00
    3   15   11     15.57     -4.23
    3   15   12     14.92      1.92
   -3   13   13      5.68     -9.69
   -3   13   12     11.06      3.42
   -3   13   11      1.57      6.47
   -3   13   10    -12.05      1.21
   -3   13    9     14.94     13.15
   -3   13    7     -0.84     -1.33
   -3   13    6     -3.32      4.79
   -3   13    5      3.41      0.54
   -3   13    4     -6.93     -4.12
   -3   13    3     -2.15      4.73
   -3   13    2     -7.15     -9.70
   -3   13    1      0.09     -8.68
    3   13    0     -1.23      3.28
    3   13    1      5.74     -2.20
    3   13    2      2.18      1.06
    3   13    3      0.80     -1.65
    3   13    4     -4.90     -2.08
    3   13    5     -5.19     -3.48
    3   13    6      7.68     -1.47
    3   13    7     -1.32      3.09
    3   13    8      0.55     -3.52
    3   13    9     -3.94      2.95
    3   13   10     -0.35     -0.26
    3   13   11      6.89     -2.65
    3   13   12     -2.21     10.94
    3   13   13     -6.76     13.75
   -3   11   14      4.97      8.75
   -3   11   13      4.49      7.61
   -3   11   12     -8.75     -5.03
   -3   11   11    -10.47     -7.68
   -3   11   10     -0.01     -3.02
   -3   11    9      9.35      3.86
   -3   11    8      4.78     -0.36
   -3   11    7     -0.38     -0.64
   -3   11    6     -1.01     -5.92
   -3   11    5     -0.84     -8.51
   -3   11    4      1.15     -2.78
   -3   11    3     -5.71     -0.45
   -3   11    2      0.59     -3.72
   -3   11    1     -6.45     -1.51
    3   11    0      1.02    -17.45
    3   11    1      0.32     -6.21
    3   11    2      1.70      6.19
    3   11    3     -3.18     -0.56
    3   11    4      2.29     -2.56
    3   11    5      0.39     -3.67
    3   11    6     -1.08      2.49
    3   11    7      8.24      5.48
    3   11    8      0.23     -2.36
    3   11    9      7.03      4.10
    3   11   10      2.57      2.00
    3   11   11     10.12      2.45
    3   11   12     -4.51     -2.40
    3   11   13    -11.14     -3.49
   -3    9   14     -5.76     -7.06
   -3    9   13     -7.26     -0.95
   -3    9   12      9.99      2.89
   -3    9   11      8.96     10.58
   -3    9   10     -4.20      0.96
   -3    9    9     -0.50     -4.58
   -3    9    8     -1.38      1.75
   -3    9    7     -1.63     -5.93
   -3    9    6     -0.06     -7.66
   -3    9    5      3.52    -10.49
   -3    9    4     -0.09     18.24
   -3    9    3    -19.58     25.27
   -3    9    2     14.38     -5.98
   -3    9    1     22.75      3.01
    3    9    0      0.25    -17.58
    3    9    1    -15.27    -25.06
    3    9    2     -5.33      3.76
    3    9    3     -3.21     -6.61
    3    9    4      5.89    -10.29
    3    9    5      4.76     -4.74
    3    9    6     -3.08      3.70
    3    9    7     -5.94      7.60
    3    9    8     -8.95     -3.27
    3    9    9      6.93      3.80
    3    9   10      0.99      9.69
    3    9   11     -7.83     -1.45
    3    9   12      1.59      5.70
    3    9   13      7.29      5.03
   -3    7   14      9.22      8.50
   -3    7   13      8.50     -9.99
   -3    7   12      0.66     -1.68
   -3    7   11     -5.36      8.28
   -3    7   10     -8.28     -1.86
   -3    7    9      1.12     -0.23
   -3    7    8      2.72     -0.06
   -3    7    7     -1.26      0.86
   -3    7    6     -0.48      5.34
   -3    7    5      3.39     -2.26
   -3    7    4      2.44     -1.91
   -3    7    3      5.95      5.98
   -3    7    2     -2.46     -2.26
   -3    7    1    -13.59     -1.11
    3    7    0      7.34     -5.12
    3    7    1     -2.78     -7.11
    3    7    2      4.27     11.67
    3    7    3      3.20      2.87
    3    7    4     -5.15      0.11
    3    7    5     -1.32     -0.41
    3    7    6      3.44      1.05
    3    7    7     -0.55     -2.05
    3    7    8      3.67      0.69
    3    7    9      1.73      3.92
    3    7   10    -12.74     -3.87
    3    7   11     -9.27     -9.45
    3    7   12      8.18    -15.65
    3    7   13      8.60      4.86
    3    7   14     -7.31      8.23
   -3    5   14      2.11     16.78
   -3    5   13     -1.80      9.49
   -3    5   12    -10.10    -10.31
   -3    5   11     -0.10     -4.20
   -3    5   10      8.13     -5.34
   -3    5    9      0.40     -2.21
   -3    5    8      1.04     -2.45
   -3    5    7      1.53      4.88
   -3    5    6     -2.22      0.27
   -3    5    5      2.48     -3.82
   -3    5    4      7.89      1.34
   -3    5    3      3.10      4.43
   -3    5    2     -3.40      5.30
   -3    5    1      7.33    -15.75
    3    5    0      8.40    -11.72
    3    5    1     -7.00     12.60
    3    5    2     -6.44     -0.71
    3    5    3      7.69     -4.12
    3    5    4      3.88     -7.77
    3    5    5     -4.73     -7.62
    3    5    6     -0.27     -5.54
    3    5    7      3.58     -0.44
    3    5    8     -7.96      7.02
    3    5    9      0.38      2.34
    3    5   10      7.63     -7.00
    3    5   11      0.42    -12.14
    3    5   12     -0.70    -10.01
    3    5   13     -5.29      3.42
    3    5   14     -4.95     12.17
   -3    3   14     13.97    -13.87
   -3    3   13      5.98     13.99
   -3    3   12    -10.84      5.66
   -3    3   11    -24.98     18.45
   -3    3   10    -10.11     -2.90
   -3    3    9      6.98    -13.38
   -3    3    8     -2.39      1.52
   -3    3    7    -11.49      4.20
   -3    3    6     -3.03     18.53
   -3    3    5      5.99      5.85
   -3    3    4     -4.15     -2.10
   -3    3    3      3.42      1.28
   -3    3    2      1.64     -6.97
   -3    3    1    -37.21     -1.30
    3    3    0   -126.29    -34.19
    3    3    1      2.94    -18.66
    3    3    2     35.49      1.95
    3    3    3      0.55      3.78
    3    3    4     21.47     -1.35
    3    3    5      3.59      0.10
    3    3    6    -20.98     -2.24
    3    3    7     -3.20     -5.23
    3    3    8     14.87     -3.50
    3    3    9      4.14     -5.53
    3    3   10      9.00     -3.40
    3    3   11    -11.60    -21.02
    3    3   12    -11.58      4.06
    3    3   13      9.40     -3.22
    3    3   14      3.62     -3.12
   -3    1   14    -10.19     20.84
   -3    1   13     -5.02     16.70
   -3    1   12      5.85      2.66
   -3    1   11     -4.08     -9.42
   -3    1   10      1.63    -20.88
   -3    1    9     -0.77    -12.28
   -3    1    8      2.49      4.95
   -3    1    7      0.55     17.35
   -3    1    6      6.36      3.82
   -3    1    5      1.72    -11.04
   -3    1    4      1.41     -7.30
   -3    1    3      7.46      7.02
   -3    1    2    -16.74     22.19
   -3    1    1    -14.20     -7.10
    3    1    0     16.21     10.34
    3    1    1      1.84     20.26
    3    1    2     -7.56    -15.57
    3    1    3      5.42     -7.97
    3    1    4      5.78     12.00
    3    1    5      0.21      7.34
    3    1    6      4.57      1.51
    3    1    7      1.98     -8.80
    3    1    8      4.79      8.76
    3    1    9      1.49      5.51
    3    1   10    -10.91     13.70
    3    1   11      6.26      0.83
    3    1   12     16.79    -12.87
    3    1   13      2.27    -13.51
    3    1   14    -13.68     -1.85
   -3   13    8     30.70      9.78
   -3   17   12     -6.57     -3.60
   -3   23   10      0.40      2.55
   -4   30    5    -11.77    -11.22
   -4   30    4     -1.14     -3.20
   -4   30    3      1.31      9.20
   -4   30    2      4.35     -0.26
   -4   30    1      3.20     -5.77
    4   30    0     -5.07     -0.69
    4   30    1     -6.55     -2.90
    4   30    2      8.46      0.50
    4   30    3      7.32     -0.16
    4   30    4     -1.69      0.29
   -4   28    7      9.47     -5.71
   -4   28    6      5.08      4.40
   -4   28    5      4.34      5.52
   -4   28    4     -2.87      8.55
   -4   28    3     -6.56      3.28
   -4   28    2      2.04      2.47
   -4   28    1     15.01      2.35
    4   28    0     -3.46     -0.83
    4   28    1      0.93      5.13
    4   28    2      6.41      3.14
    4   28    3      2.83      1.16
    4   28    4     -2.93      0.04
    4   28    5     -3.65      1.47
    4   28    6      5.60     -2.91
   -4   26    8     -6.27     13.00
   -4   26    7      5.79     17.84
   -4   26    6     12.76     -7.15
   -4   26    5      2.39    -10.52
   -4   26    4     -6.59     -0.48
   -4   26    3     -0.27      4.24
   -4   26    2      6.77     -0.84
   -4   26    1      1.37     -1.27
    4   26    0    -10.42      7.42
    4   26    1     -6.54      4.13
    4   26    2     11.33     -6.77
    4   26    3     11.09     -2.69
    4   26    4     -4.78     -7.10
    4   26    5    -10.58     -1.04
    4   26    6     -9.87      6.00
    4   26    7     -2.26      0.34
    4   26    8     -1.56     -5.37
   -4   24    9     10.84    -19.19
   -4   24    8      3.93     -2.99
   -4   24    7      5.82      3.79
   -4   24    6      3.14     -1.69
   -4   24    5     -3.99     -4.99
   -4   24    4     -4.89     -0.64
   -4   24    3      0.68     -2.10
   -4   24    2      5.52     -2.05
   -4   24    1     -1.15     -4.49
    4   24    0      0.13      3.94
    4   24    1      0.48      1.75
    4   24    2      0.53      0.72
    4   24    3     -0.63     -4.91
    4   24    4     -0.29     -0.35
    4   24    5     -3.93      5.85
    4   24    6      0.97     -1.31
    4   24    7      9.63    -10.28
    4   24    8     13.21      4.78
    4   24    9     -1.78      4.82
   -4   22   10     -4.41    -14.89
   -4   22    9     -0.20     -6.22
   -4   22    8      9.69      4.53
   -4   22    7     -3.43     -3.19
   -4   22    6     -2.04      4.05
   -4   22    5      9.21     -4.10
   -4   22    4     -3.80     -0.26
   -4   22    3     -7.51     -2.92
   -4   22    2     -6.29      0.26
   -4   22    1     -2.25      1.21
    4   22    0    -13.88     -6.26
    4   22    1      1.22     -1.66
    4   22    2      3.96     -1.49
    4   22    3      2.84     -1.32
    4   22    4      0.16      0.91
    4   22    5     -6.51      0.80
    4   22    6     -5.48     -3.18
    4   22    7     -2.28      1.12
    4   22    8     -4.01     -4.56
    4   22    9      1.69     -8.53
    4   22   10     11.50      8.97
   -4   20   11     -5.31     14.01
   -4   20   10    -11.94     11.40
   -4   20    9     -5.53      0.22
   -4   20    8      2.04    -14.39
   -4   20    7      1.18      5.33
   -4   20    6     -2.07     -0.07
   -4   20    5     -2.62     -4.50
   -4   20    4     -6.74     -9.46
   -4   20    3     -1.85     -3.74
   -4   20    2      2.45      4.74
   -4   20    1     -0.02     -0.41
    4   20    0    -11.02      8.39
    4   20    1     -5.52      7.72
    4   20    2      0.27     -5.71
    4   20    3      0.78      1.74
    4   20    4     -1.93      1.41
    4   20    5      3.14      0.13
    4   20    6      0.88      1.26
    4   20    7     -3.05     -3.59
    4   20    8      0.08     -4.55
    4   20    9      5.31    -10.62
    4   20   10    -15.12     -4.24
   -4   18   12     -3.12     -1.32
   -4   18   11      3.65      6.50
   -4   18   10      6.27    -11.43
   -4   18    9      6.46     -8.96
   -4   18    8     -3.22     -0.96
   -4   18    7     -4.00     -0.71
   -4   18    6      0.08     -0.37
   -4   18    5      7.58     -0.18
   -4   18    4      1.59      0.64
   -4   18    3     -0.89      1.23
   -4   18    2     -1.18      4.79
   -4   18    1     -1.50      2.93
    4   18    0     -0.07     -0.36
    4   18    1     -1.71      2.85
    4   18    2     -7.64      2.17
    4   18    3      2.89      4.55
    4   18    4      4.63      1.96
    4   18    5     -0.37      2.78
    4   18    6      0.72      1.71
    4   18    7      1.94     -4.67
    4   18    8     -0.33      3.05
    4   18    9     -0.41      8.16
    4   18   10     10.43     -2.66
    4   18   11     -0.56    -10.58
   -4   16   12      5.10      4.47
   -4   16   11     -4.98      5.25
   -4   16   10     -3.76     -1.61
   -4   16    9      1.93      4.56
   -4   16    8     11.75     12.39
   -4   16    7      1.31     -1.76
   -4   16    6     -4.08      3.90
   -4   16    5      1.02      0.23
   -4   16    4     -0.95     -5.92
   -4   16    3     -1.37      2.10
   -4   16    2      0.15      0.60
   -4   16    1     -1.82     -0.88
    4   16    0     -3.24      8.21
    4   16    1      7.42     -2.03
    4   16    2      6.69     -5.71
    4   16    3     -1.97      0.23
    4   16    4     -6.90      0.46
    4   16    5      2.20      1.22
    4   16    6      0.57     -0.44
    4   16    7     -2.15      5.30
    4   16    8      8.75     -7.59
    4   16    9      5.79     -6.25
    4   16   10      2.72    -11.39
    4   16   11      2.09     -9.89
    4   16   12     -0.43     16.47
   -4   14   13     -2.79      2.83
   -4   14   12      3.71    -10.15
   -4   14   11     -0.90     -7.00
   -4   14   10      2.12      3.41
   -4   14    9     -0.97      2.49
   -4   14    8     -5.65     -4.29
   -4   14    7     -4.44      2.19
   -4   14    6      2.64     -1.21
   -4   14    5     -3.52      0.42
   -4   14    4      2.94      8.46
   -4   14    3     -0.22      6.52
   -4   14    2     -5.80     -4.45
   -4   14    1     -4.77      1.60
    4   14    0      9.18    -16.76
    4   14    1      9.48     -7.74
    4   14    2      3.48     -3.83
    4   14    3     -4.30      7.05
    4   14    4     -1.91      4.69
    4   14    5     -1.65     -5.65
    4   14    6     -1.78      2.07
    4   14    7      0.61      4.04
    4   14    8     -2.49      6.57
    4   14    9     -0.99     -0.98
    4   14   10     -7.42      1.10
    4   14   11      7.12      2.83
    4   14   12     -7.25     11.28
   -4   12   13     -6.90     -2.47
   -4   12   12      4.47      3.78
   -4   12   11      3.62     10.71
   -4   12   10     -2.06      3.09
   -4   12    9     -3.55     -4.89
   -4   12    8     -4.93     -2.30
   -4   12    7     -2.11      4.05
   -4   12    6     -7.87     -2.40
   -4   12    5      2.56     -6.98
   -4   12    4     -0.55      5.89
   -4   12    3     -3.80      9.89
   -4   12    2     17.09     22.37
   -4   12    1      3.16     10.81
    4   12    0     10.86    -11.81
    4   12    1      9.46    -34.00
    4   12    2     20.19    -27.51
    4   12    3      3.64      1.59
    4   12    4     -0.28      1.73
    4   12    5      9.32     -2.11
    4   12    6      1.90     -2.46
    4   12    7      3.74     -6.99
    4   12    8      0.72     -1.44
    4   12    9     -2.44      1.17
    4   12   10      0.30     -0.68
    4   12   11      1.58     -4.63
    4   12   12     -0.93     -5.43
    4   12   13      0.00     -5.11
   -4   10   14     -1.17     10.56
   -4   10   13     14.59     -6.95
   -4   10   12      9.56     -9.42
   -4   10   11     -5.29     10.01
   -4   10   10     -3.06      7.30
   -4   10    9      5.13      0.34
   -4   10    8     -1.95     -3.78
   -4   10    7     -5.27     -7.00
   -4   10    6     -0.75      0.34
   -4   10    5     -0.45      3.34
   -4   10    4     -0.63     -0.22
   -4   10    3     -6.03      5.26
   -4   10    2     -6.45     -7.32
   -4   10    1     -4.15      9.62
    4   10    0     15.47    -12.96
    4   10    1      2.77      3.08
    4   10    2      0.73      1.64
    4   10    3      3.28     -4.88
    4   10    4      3.65      3.96
    4   10    5      2.05     -0.55
    4   10    6     -0.94     -7.38
    4   10    7     -1.36      3.73
    4   10    8     -5.42     -8.81
    4   10    9     -3.72     -5.19
    4   10   10     -3.63     -2.20
    4   10   11      0.07      9.19
    4   10   12     -1.72     -2.87
    4   10   13      1.98    -10.62
   -4    8   14      5.85      5.17
   -4    8   13     -2.57     14.40
   -4    8   12     -4.51     -0.95
   -4    8   11      5.33     -6.82
   -4    8   10      4.87     -5.84
   -4    8    9      0.28      3.23
   -4    8    8      1.24      2.41
   -4    8    7     -0.03      0.26
   -4    8    6     -1.07     -5.98
   -4    8    5      0.63      0.53
   -4    8    4      2.05      3.43
   -4    8    3     -6.87      1.73
   -4    8    2     -5.05      8.45
   -4    8    1      2.94     -6.93
    4    8    0    -12.54      3.81
    4    8    1     -5.38      2.79
    4    8    2      2.23     -0.20
    4    8    3     -1.48      0.64
    4    8    4      2.48      2.73
    4    8    5      5.05     -2.25
    4    8    6      1.78     -2.44
    4    8    7      3.36     -2.04
    4    8    8     -3.75     -0.25
    4    8    9      1.74      2.07
    4    8   10      1.21     -0.53
    4    8   11     11.88     -6.23
    4    8   12      2.09     -9.92
    4    8   13     -8.60      0.30
   -4    6   14      6.09     -7.34
   -4    6   13    -16.61     -5.69
   -4    6   12      7.51      5.53
   -4    6   11      3.42     22.52
   -4    6   10     -8.24      5.03
   -4    6    9      0.75     -3.00
   -4    6    8      0.61    -12.98
   -4    6    7      6.80     -0.69
   -4    6    6     -6.69      7.86
   -4    6    5     -0.29      4.05
   -4    6    4      1.74      4.72
   -4    6    3     -7.41    -14.68
   -4    6    2     12.55     -1.71
   -4    6    1      3.45      8.88
    4    6    0    -19.10     -5.34
    4    6    1    -26.75     -8.29
    4    6    2     -1.31     -1.70
    4    6    3     -5.38      9.29
    4    6    4      8.16     -3.25
    4    6    5      8.16     -5.38
    4    6    6     -3.15      2.22
    4    6    7      2.61      4.51
    4    6    8     -3.36      3.15
    4    6    9      7.31      0.72
    4    6   10      3.61      2.19
    4    6   11    -16.68     -0.65
    4    6   12     -0.64      2.50
    4    6   13      8.93     -0.37
   -4    4   14     -1.78     11.76
   -4    4   13      8.51      9.35
   -4    4   12      2.46      5.84
   -4    4   11    -10.46     -4.33
   -4    4   10     -2.00     -2.48
   -4    4    9     -0.02      3.82
   -4    4    8      3.07      4.49
   -4    4    7      1.31     -0.62
   -4    4    6     -1.02     -0.02
   -4    4    5     -0.12     -0.72
   -4    4    4     -2.27     -3.09
   -4    4    3     -4.12     -2.23
   -4    4    2     -4.05     -3.70
   -4    4    1      8.86    -11.89
    4    4    0      1.19      0.28
    4    4    1    -11.03      0.39
    4    4    2     -1.24     -0.93
    4    4    3      0.28     -4.64
    4    4    4      0.50     -2.06
    4    4    5      1.35     -4.16
    4    4    6      1.88      0.89
    4    4    7     -7.39      4.80
    4    4    8      1.34      3.93
    4    4    9      7.07     -2.16
    4    4   10     -2.80      9.60
    4    4   11    -10.99     -8.12
    4    4   12     -3.06    -17.27
    4    4   13      4.04     -4.95
    4    4   14     -4.61      7.80
   -4    2   14     12.35      4.01
   -4    2   13     16.48      2.19
   -4    2   12     -6.04     -3.26
   -4    2   11    -11.83      0.68
   -4    2   10     10.17      1.03
   -4    2    9      5.06     -4.30
   -4    2    8      1.90     -1.31
   -4    2    7      0.09     -5.85
   -4    2    6     -0.18      2.33
   -4    2    5      3.96      9.72
   -4    2    4     -4.91     -3.78
   -4    2    3     -5.67     -6.50
   -4    2    2      0.55     -0.39
   -4    2    1     23.34      3.71
    4    2    0    -12.32     -9.72
    4    2    1      4.22     10.30
    4    2    2     -3.87      0.71
    4    2    3     -6.40     -1.46
    4    2    4     -1.83      1.87
    4    2    5      1.03     -2.77
    4    2    6      2.81     -1.80
    4    2    7     -2.12     -2.07
    4    2    8      5.50      6.71
    4    2    9     -1.62      4.65
    4    2   10     -4.84      8.07
    4    2   11     -8.13     -6.31
    4    2   12      1.36     -9.87
    4    2   13     -0.26      0.55
    4    2   14     -7.34     11.92
   -4    0   14     10.86     -7.78
   -4    0   13      4.33     16.69
   -4    0   12     17.50     -1.33
   -4    0   11    -11.76      3.46
   -4    0   10    -10.38     11.93
   -4    0    9      1.83      8.79
   -4    0    8    -10.82    -13.65
   -4    0    7      1.31     -3.29
   -4    0    6     10.46     19.48
   -4    0    5     16.09     22.70
   -4    0    4     -7.24    -10.74
   -4    0    3     -9.53    -19.20
   -4    0    2     15.23     18.05
   -4    0    1     18.53     13.82
    4    0    0    -29.20     53.18
    4    0    1      3.92     11.46
    4    0    2     10.49    -36.41
    4    0    3     -9.45      2.07
    4    0    4      8.82      1.07
    4    0    5     37.65     -3.54
    4    0    6     20.71     -8.94
    4    0    7    -12.10     -1.55
    4    0    8    -18.13     -0.42
    4    0    9     -3.15      0.77
    4    0   10     14.84     -1.88
    4    0   11    -12.71     -7.14
    4    0   12     -0.80     10.53
    4    0   13     -3.20      1.29
    4    0   14     -6.03     -2.66
   -5   31    2    -10.99     -2.01
   -5   31    1     -8.20      3.80
    5   31    0      1.97      0.54
    5   31    1      3.16      1.03
   -5   29    5     -3.81     10.31
   -5   29    4      7.33     13.91
   -5   29    3      0.91     -0.18
   -5   29    2      1.17     -2.09
   -5   29    1      3.36     -2.92
    5   29    0     -8.52      4.69
    5   29    1    -12.85      6.63
    5   29    2      5.44     -1.96
    5   29    3      7.17     -6.49
    5   29    4     -2.07     -6.89
    5   29    5      3.25      2.65
   -5   27    7     -1.41     10.02
   -5   27    6     -2.51      3.01
   -5   27    5      1.05     -6.84
   -5   27    4      4.39     -1.22
   -5   27    3     -0.24     -0.31
   -5   27    2      5.00     -0.45
   -5   27    1      2.36     -1.16
    5   27    0     -4.09      1.13
    5   27    1     -8.18      3.99
    5   27    2      2.94      2.52
    5   27    3      4.53     -0.25
    5   27    4      3.11     -2.73
    5   27    5     -2.11      1.85
    5   27    6     -0.29     -3.17
   -5   25    9     13.56      6.57
   -5   25    8      8.42      5.52
   -5   25    7      0.74     -3.47
   -5   25    6     -7.04      3.42
   -5   25    5      4.19      5.05
   -5   25    4      1.95      2.65
   -5   25    3      1.09     -4.60
   -5   25    2    -10.72     -8.69
   -5   25    1     -3.92      6.07
    5   25    0     -0.27      3.83
    5   25    1      4.34      5.53
    5   25    2     -2.29     -2.79
    5   25    3     -2.95     -2.50
    5   25    4     -5.23      1.73
    5   25    5     -0.03      0.57
    5   25    6      3.45     -6.02
    5   25    7      4.80      6.53
    5   25    8     -5.61     15.09
   -5   23   10     -4.08     -3.76
   -5   23    9     -0.07     -0.80
   -5   23    8      4.19      0.18
   -5   23    7     -7.26      7.80
   -5   23    6     -1.44     -3.00
   -5   23    5     -1.78     -4.36
   -5   23    4     -4.22      0.51
   -5   23    3     -5.45     -0.44
   -5   23    2      0.33      2.52
   -5   23    1      4.86      1.91
    5   23    0     -8.03      6.73
    5   23    1     -2.19     13.22
    5   23    2      7.53     -5.70
    5   23    3     10.57    -12.38
    5   23    4     -3.08     -2.86
    5   23    5     -3.04      1.11
    5   23    6      1.01      5.28
    5   23    7      1.13     -0.46
    5   23    8      8.29      6.63
    5   23    9      8.51      1.02
   -5   21   11     -9.36     -2.14
   -5   21   10      7.66     -4.76
   -5   21    9      9.70     -2.17
   -5   21    8      1.07      1.50
   -5   21    7      5.44      8.71
   -5   21    6      3.30     -3.80
   -5   21    5      2.63     -0.75
   -5   21    4      0.23      7.55
   -5   21    3     -0.94      0.93
   -5   21    2     -4.78      1.51
   -5   21    1     -3.25     -5.79
    5   21    0      2.59      6.17
    5   21    1      3.57     -0.01
    5   21    2      1.02     -3.77
    5   21    3     -5.99      1.05
    5   21    4     -3.68      2.83
    5   21    5     -4.42      2.02
    5   21    6      4.22     -5.11
    5   21    7      0.23     -2.52
    5   21    8      0.33     13.67
    5   21    9     -6.38     10.35
    5   21   10     -3.99    -10.88
   -5   19   11    -11.35     -5.07
   -5   19   10      3.96     -5.06
   -5   19    9     11.45      6.11
   -5   19    8      5.03     12.70
   -5   19    7      1.37      1.45
   -5   19    6     -8.06      2.74
   -5   19    5      0.25      0.77
   -5   19    4     -6.63      1.05
   -5   19    3      0.83      3.38
   -5   19    2     10.81     -5.46
   -5   19    1      5.14     -3.82
    5   19    0     -9.35     -4.33
    5   19    1      0.78      0.22
    5   19    2     10.07      2.90
    5   19    3      3.80     -4.80
    5   19    4     -3.26     -1.94
    5   19    5      4.18      0.45
    5   19    6     -2.82      6.52
    5   19    7     -1.28     11.51
    5   19    8     -3.41     -3.27
    5   19    9      4.04     -6.75
    5   19   10     13.15      7.24
    5   19   11      2.73      8.37
   -5   17   12      4.67     -6.88
   -5   17   11      6.80     -2.46
   -5   17   10      4.58      0.94
   -5   17    9     -5.46      0.15
   -5   17    8      2.42     -1.45
   -5   17    7     -8.59     -0.63
   -5   17    6     -2.49     -0.55
   -5   17    5     -0.70     -0.50
   -5   17    4      4.26      6.18
   -5   17    3     -2.85      1.69
   -5   17    2     -4.62     -8.69
   -5   17    1     -1.07    -13.53
    5   17    0      0.08     -8.00
    5   17    1      8.29    -14.73
    5   17    2      2.53     -2.85
    5   17    3      0.12      4.23
    5   17    4      0.44     -1.52
    5   17    5      1.37     -0.76
    5   17    6      0.15      1.72
    5   17    7     -2.67     -5.16
    5   17    8      3.28      0.00
    5   17    9      1.63     -7.49
    5   17   10      0.45      3.85
    5   17   11      1.51     -1.76
   -5   15   12     -2.70    -10.57
   -5   15   11    -17.63      1.42
   -5   15   10     -3.29      8.30
   -5   15    9      4.81      8.06
   -5   15    8      0.41     -1.56
   -5   15    7      0.06     -0.59
   -5   15    6     -1.33     -5.64
   -5   15    5      2.58      0.12
   -5   15    4     -1.19     -0.04
   -5   15    3     -0.29      0.74
   -5   15    2     -0.59      6.73
   -5   15    1     -0.68      3.35
    5   15    0      5.12     -8.13
    5   15    1      3.81     -2.06
    5   15    2      0.88      1.75
    5   15    3      4.18      0.59
    5   15    4      8.04     -4.52
    5   15    5      3.78      1.59
    5   15    6     -2.11      3.04
    5   15    7      2.86     -3.12
    5   15    8      4.87      1.07
    5   15    9     -3.32      2.38
    5   15   10      3.05     -5.41
    5   15   11      1.65      0.33
    5   15   12     -6.09     -6.84
   -5   13   13     10.81     -0.18
   -5   13   12      3.70     -6.16
   -5   13   11     -7.27      2.36
   -5   13   10      2.18      3.27
   -5   13    9     -2.45      1.86
   -5   13    8    -13.81      5.61
   -5   13    7      5.08     -2.19
   -5   13    6      2.63     -3.82
   -5   13    5     -4.99      1.00
   -5   13    4      9.62      3.07
   -5   13    3     -4.32      3.12
   -5   13    2    -10.78      1.59
   -5   13    1     -1.38      4.96
    5   13    0     23.79     -4.93
    5   13    1     12.57     -1.39
    5   13    2     -7.46     -3.74
    5   13    3     -5.06     -1.36
    5   13    4      3.13      1.99
    5   13    5      8.88     -5.44
    5   13    6     -7.50     -1.80
    5   13    7     -1.63      5.45
    5   13    8     -4.73     -4.06
    5   13    9      9.60     -4.32
    5   13   10      2.93     -8.99
    5   13   11     -8.47     -3.03
    5   13   12     -4.11     -5.53
   -5   11   13     -1.79      3.33
   -5   11   12      4.48     -2.86
   -5   11   11      1.87      4.45
   -5   11   10      3.67     -0.29
   -5   11    9      5.69      0.02
   -5   11    8      2.33      5.25
   -5   11    7     -3.07      3.36
   -5   11    6      4.28      0.51
   -5   11    5     -6.10      2.02
   -5   11    4     -1.40      9.52
   -5   11    3     -2.12     -0.76
   -5   11    2     -4.03      6.09
   -5   11    1     -4.53      5.64
    5   11    0     -6.95      3.20
    5   11    1     -9.75      5.99
    5   11    2      5.81     -6.85
    5   11    3     -1.13      3.51
    5   11    4     -4.40      8.14
    5   11    5     -1.90      1.57
    5   11    6     -5.27     -1.02
    5   11    7     -0.75     -1.55
    5   11    8      0.63      5.98
    5   11    9     -3.53      3.78
    5   11   10     -8.55      6.07
    5   11   11      6.37    -13.21
    5   11   12      3.95     -9.46
    5   11   13     -0.28      7.35
   -5    9   14     -2.17     -1.83
   -5    9   13      1.28    -14.91
   -5    9   12      3.59     -1.49
   -5    9   11    -14.13     11.43
   -5    9   10     -5.20      4.87
   -5    9    9     -0.33     -0.87
   -5    9    8      8.53    -11.02
   -5    9    7      6.19      3.81
   -5    9    6     -4.05     -3.93
   -5    9    5      1.89      2.06
   -5    9    4     -1.19     13.61
   -5    9    3      5.64     -9.02
   -5    9    2      3.06     -1.78
   -5    9    1      4.53    -10.80
    5    9    0     11.42    -34.98
    5    9    1      2.56    -41.45
    5    9    2      5.44    -15.61
    5    9    3     -5.02     22.52
    5    9    4     -0.78      0.65
    5    9    5      8.04     -8.07
    5    9    6      1.91     -1.26
    5    9    7      6.72    -12.75
    5    9    8      3.62      6.83
    5    9    9     -2.45      2.59
    5    9   10     -3.72     -2.69
    5    9   11      0.09      0.36
    5    9   12     -4.04      0.12
    5    9   13     -0.43     -2.14
   -5    7   14    -18.56      3.77
   -5    7   13      5.01      5.41
   -5    7   12     14.79      0.50
   -5    7   11     -2.19     -3.66
   -5    7   10     -3.38      1.69
   -5    7    9     -0.33      4.32
   -5    7    8     -3.33      2.07
   -5    7    7      0.30     -0.51
   -5    7    6     -2.70     -1.21
   -5    7    5     -4.16     -0.88
   -5    7    4      3.18     -1.51
   -5    7    3     -6.03     -2.81
   -5    7    2     -5.71     -0.26
   -5    7    1      1.70      0.09
    5    7    0      4.23      0.01
    5    7    1     -7.14     11.25
    5    7    2      0.71     -1.36
    5    7    3      0.31     -6.90
    5    7    4      2.03      1.18
    5    7    5      1.10      0.80
    5    7    6     -0.77      0.51
    5    7    7      3.56     -3.72
    5    7    8     -4.44     -6.25
    5    7    9      1.64     -2.70
    5    7   10      7.70      4.88
    5    7   11      1.96      5.96
    5    7   12    -10.39     -2.58
    5    7   13    -10.24     -4.50
   -5    5   14      1.48     -8.67
   -5    5   13     -0.86      8.26
   -5    5   12     12.42      7.60
   -5    5   11      8.19      6.38
   -5    5   10     -7.20      5.15
   -5    5    9     -6.12      0.73
   -5    5    8     -1.73     -8.46
   -5    5    7      2.01     -6.33
   -5    5    6      1.42     -6.59
   -5    5    5     -1.80      5.81
   -5    5    4      0.88      6.63
   -5    5    3     -4.34     -5.02
   -5    5    2     10.71    -10.08
   -5    5    1     25.78      3.39
    5    5    0    -12.61     -8.34
    5    5    1    -13.42    -15.50
    5    5    2      2.52      0.52
    5    5    3     -2.37      4.44
    5    5    4     -1.21     -5.71
    5    5    5     -0.69     -1.66
    5    5    6      2.40      4.20
    5    5    7      3.73     -2.60
    5    5    8     -1.92     -9.22
    5    5    9     -6.21      2.86
    5    5   10     -3.77      8.00
    5    5   11      4.73     -5.31
    5    5   12      1.19     -8.61
    5    5   13     -7.93      2.18
   -5    3   14     -1.68     -6.92
   -5    3   13     -7.97    -14.16
   -5    3   12     23.61      0.78
   -5    3   11      2.57      3.96
   -5    3   10     -8.90     -2.33
   -5    3    9    -12.63      6.69
   -5    3    8     -1.59    -10.19
   -5    3    7      3.11     -0.28
   -5    3    6     -1.20    -11.53
   -5    3    5      2.48     -0.57
   -5    3    4      9.19      5.88
   -5    3    3      5.53    -13.54
   -5    3    2    -12.07      7.48
   -5    3    1     10.55     -3.24
    5    3    0     19.20     18.69
    5    3    1      9.90     10.25
    5    3    2     -8.28    -16.04
    5    3    3     -5.71      5.36
    5    3    4     -7.44     -2.13
    5    3    5     13.75     -3.51
    5    3    6     10.47      2.59
    5    3    7     -1.43     -4.44
    5    3    8     -9.26      2.96
    5    3    9     -5.20      6.80
    5    3   10     -6.55      8.27
    5    3   11     -5.17      8.64
    5    3   12     16.83      1.06
    5    3   13      2.55      1.49
   -5    1   14     -0.52    -19.32
   -5    1   13      4.74    -14.80
   -5    1   12      2.78      7.08
   -5    1   11      2.36     12.15
   -5    1   10     -1.62      8.62
   -5    1    9     -2.67     -9.22
   -5    1    8     -2.09     -7.19
   -5    1    7      2.14     -4.36
   -5    1    6     -5.75      0.33
   -5    1    5      3.33      5.20
   -5    1    4      4.41     -0.03
   -5    1    3    -12.40      0.45
   -5    1    2      1.98     -7.77
   -5    1    1     21.50      7.49
    5    1    0     -9.77     -9.54
    5    1    1     -6.39      0.37
    5    1    2      2.67     15.99
    5    1    3     -6.62      3.01
    5    1    4     -3.03     -4.03
    5    1    5     -1.86      1.58
    5    1    6      1.23     -1.74
    5    1    7     -3.54     -0.52
    5    1    8      2.16      3.29
    5    1    9     -3.36      0.61
    5    1   10     10.42      4.43
    5    1   11     -9.80      1.19
    5    1   12    -11.55     -2.48
    5    1   13     -5.17     -6.70
   -6   30    3     -3.53     -2.62
   -6   30    2      9.75      3.33
   -6   30    1      9.61      5.72
    6   30    0      4.11     -1.29
    6   30    1     -6.70      4.50
    6   30    2     -7.40      5.28
   -6   28    6    -13.29     -9.36
   -6   28    5     -7.85    -12.85
   -6   28    4     15.09     -4.55
   -6   28    3     15.70      3.70
   -6   28    2    -16.57     -8.62
   -6   28    1    -28.50     -1.73
    6   28    0      4.37    -12.43
    6   28    1      8.38    -12.72
    6   28    2    -10.70      5.05
    6   28    3     -3.46      4.13
    6   28    4      2.06     -7.30
    6   28    5      2.30     -1.55
   -6   26    8      0.20     -4.99
   -6   26    7    -10.46     -7.44
   -6   26    6     -1.52      4.74
   -6   26    5      4.77      6.60
   -6   26    4     -2.21      8.20
   -6   26    3     -2.78      4.32
   -6   26    2      4.20      3.38
   -6   26    1      3.71      1.59
    6   26    0    -11.64      5.88
    6   26    1     -4.31     14.89
    6   26    2      2.72      3.83
    6   26    3      9.80    -12.22
    6   26    4     10.72     -4.09
    6   26    5     -0.45      6.13
    6   26    6      2.52      7.31
    6   26    7      1.00      2.58
   -6   24    9     -2.43      3.38
   -6   24    8      5.96      0.17
   -6   24    7      0.62      3.86
   -6   24    6     -1.08      0.59
   -6   24    5      9.51     -3.93
   -6   24    4      4.70      2.26
   -6   24    3     -1.04      1.14
   -6   24    2     -0.33     -0.46
   -6   24    1      3.26     -1.25
    6   24    0      1.64     -7.00
    6   24    1     -0.67      0.62
    6   24    2      2.17     -1.44
    6   24    3      0.04      1.26
    6   24    4     -0.28     -3.22
    6   24    5      0.46      5.10
    6   24    6     -1.20     -0.08
    6   24    7     -6.44     -2.90
    6   24    8      0.09     -0.69
   -6   22   10     21.81      9.71
   -6   22    9     13.13     21.32
   -6   22    8     -7.65     11.33
   -6   22    7     -3.15      0.16
   -6   22    6     -5.67     -6.36
   -6   22    5     -2.57      7.77
   -6   22    4     -1.35      2.40
   -6   22    3      4.91      2.24
   -6   22    2      9.57     -1.23
   -6   22    1      8.49     -4.34
    6   22    0     -0.12     11.88
    6   22    1     -6.28      6.35
    6   22    2     -3.05     -2.33
    6   22    3      3.92     -3.08
    6   22    4      1.32      2.53
    6   22    5      0.43     -2.76
    6   22    6     -2.81      2.61
    6   22    7      2.80      2.04
    6   22    8     -0.60     14.40
    6   22    9     -7.50     10.91
   -6   20   11      8.33     -5.19
   -6   20   10      1.90     -9.65
   -6   20    9     -6.59     -5.01
   -6   20    8      1.62     14.30
   -6   20    7     -8.99      4.06
   -6   20    6     -7.93     -0.07
   -6   20    5      1.56     -5.91
   -6   20    4      4.28     -1.25
   -6   20    3      1.83     -0.77
   -6   20    2     -4.33     -2.91
   -6   20    1      6.42     -3.08
    6   20    0      1.09     -0.10
    6   20    1      6.27     -3.17
    6   20    2      3.32      1.50
    6   20    3      2.69     -3.35
    6   20    4     -2.27      0.39
    6   20    5     -8.98      4.05
    6   20    6      6.95      2.35
    6   20    7     12.07      1.80
    6   20    8     11.84     11.67
    6   20    9     -0.72      5.33
    6   20   10      4.43     -3.18
   -6   18   11     -8.14     -2.81
   -6   18   10      6.55      7.80
   -6   18    9     -1.96     11.47
   -6   18    8     -1.78     -1.38
   -6   18    7      4.95      2.29
   -6   18    6      2.15     -1.31
   -6   18    5     -2.82      2.00
   -6   18    4      3.02      2.87
   -6   18    3     -1.41      4.07
   -6   18    2    -12.39      0.95
   -6   18    1     -6.31     -6.04
    6   18    0      1.56     -0.72
    6   18    1      6.93     -2.19
    6   18    2      3.14     -3.31
    6   18    3     -2.71      1.34
    6   18    4     -3.13     -1.35
    6   18    5     -0.73      2.96
    6   18    6     -1.88     -2.67
    6   18    7     -2.29      4.66
    6   18    8      5.70      4.88
    6   18    9      0.05      4.68
    6   18   10    -10.87      1.87
   -6   16   12      0.39     -0.13
   -6   16   11      4.42     -3.59
   -6   16   10      5.36      1.27
   -6   16    9      3.07      6.77
   -6   16    8     -3.81     -1.97
   -6   16    7      2.53     -0.08
   -6   16    6     -3.27      0.61
   -6   16    5     -4.42      3.36
   -6   16    4      5.07      2.47
   -6   16    3      6.93      1.09
   -6   16    2      3.64     -1.59
   -6   16    1     -3.25     -6.42
    6   16    0     -1.02     -2.38
    6   16    1      5.37      1.68
    6   16    2     -3.89      3.23
    6   16    3     -4.23     -3.93
    6   16    4      6.48      5.25
    6   16    5      0.83     -6.25
    6   16    6     -4.59      0.62
    6   16    7      3.07      2.84
    6   16    8     -7.31      2.95
    6   16    9     -1.61     -4.05
    6   16   10     -1.05      3.24
    6   16   11     -4.03      7.47
   -6   14   13     -7.85    -11.33
   -6   14   12      0.03    -11.57
   -6   14   11      9.55      2.62
   -6   14   10      5.67      3.47
   -6   14    9     -0.27     -6.11
   -6   14    8     10.57     -0.52
   -6   14    7      7.12     -5.45
   -6   14    6     -2.49      8.98
   -6   14    5     -0.68      5.06
   -6   14    4     -0.71      4.15
   -6   14    3     -5.23     -9.70
   -6   14    2     -0.35     -2.63
   -6   14    1     11.01     -8.03
    6   14    0      0.50     -1.91
    6   14    1     -7.98     -4.20
    6   14    2      0.52     -0.47
    6   14    3      2.92      0.63
    6   14    4     -1.40     -3.55
    6   14    5     -0.45      1.52
    6   14    6     -1.93      5.17
    6   14    7     -4.06      0.14
    6   14    8      0.47      2.42
    6   14    9     -2.25      3.27
    6   14   10     -0.35      7.96
    6   14   11     -2.09     -8.94
    6   14   12      7.56     -7.65
   -6   12   13     13.27     -2.52
   -6   12   12     -8.89      4.21
   -6   12   11    -26.38      3.37
   -6   12   10     -5.19     -1.51
   -6   12    9      3.44     -5.81
   -6   12    8      4.14     -4.55
   -6   12    7     -2.34     -1.14
   -6   12    6      2.26    -10.11
   -6   12    5     -1.48     -1.75
   -6   12    4     -0.25      4.61
   -6   12    3      3.76     -1.03
   -6   12    2     -9.24     -4.42
   -6   12    1      5.77     -5.90
    6   12    0      1.79     -6.15
    6   12    1     -5.67      5.05
    6   12    2     -8.23      3.32
    6   12    3      1.44      2.35
    6   12    4      4.20     -4.35
    6   12    5      6.14     -4.06
    6   12    6      1.01     -1.70
    6   12    7     -3.51      2.54
    6   12    8      2.26      6.37
    6   12    9      0.78     -7.86
    6   12   10    -15.02     -5.62
    6   12   11    -10.93      6.50
    6   12   12      2.46     12.45
   -6   10   13    -11.61     -8.64
   -6   10   12      8.03     -9.56
   -6   10   11     12.17      0.45
   -6   10   10     -2.45      6.36
   -6   10    9     -8.98      4.56
   -6   10    8      2.52      1.23
   -6   10    7     10.09      4.78
   -6   10    6      1.55     -0.87
   -6   10    5     -0.17      0.27
   -6   10    4     -0.06      4.25
   -6   10    3     -6.25     -4.65
   -6   10    2     14.27      0.56
   -6   10    1     13.45     -6.90
    6   10    0    -16.37     -8.21
    6   10    1    -12.07     -9.91
    6   10    2      6.01      6.18
    6   10    3      2.29      7.17
    6   10    4      2.07     -1.81
    6   10    5      0.96     -6.19
    6   10    6      0.26      3.99
    6   10    7      7.11     -3.18
    6   10    8     -5.00      2.14
    6   10    9     -1.42     -3.81
    6   10   10     -2.45     -1.99
    6   10   11      6.42      6.03
    6   10   12     -0.19      0.45
   -6    8   14     11.79     -5.65
   -6    8   13     -5.45     -3.68
   -6    8   12      4.19      5.14
   -6    8   11      1.96     14.99
   -6    8   10     -0.43     -2.45
   -6    8    9     -4.85     -0.53
   -6    8    8      0.48     -0.38
   -6    8    7     -2.59     -4.19
   -6    8    6      0.39     -0.49
   -6    8    5     -4.54      1.23
   -6    8    4     -2.73      9.77
   -6    8    3      0.71     -5.89
   -6    8    2      2.15    -12.31
   -6    8    1      3.70     -9.79
    6    8    0     -3.18    -11.45
    6    8    1     -6.83    -12.95
    6    8    2      2.74     -9.24
    6    8    3     -0.95     12.43
    6    8    4      2.00      3.00
    6    8    5      5.23     -2.85
    6    8    6     -6.50      0.75
    6    8    7     -0.97     -1.98
    6    8    8      0.48      4.14
    6    8    9      0.49      1.48
    6    8   10     -4.01      3.02
    6    8   11     -1.49    -11.21
    6    8   12     -5.95    -10.68
    6    8   13     -1.44      2.11
   -6    6   14    -12.09     -9.30
   -6    6   13      9.59    -18.19
   -6    6   12     11.63      7.46
   -6    6   11    -15.74      0.73
   -6    6   10     -5.93     -5.56
   -6    6    9    -12.45     -3.04
   -6    6    8      6.98      2.87
   -6    6    7      1.66      5.56
   -6    6    6      2.01     -3.87
   -6    6    5      0.77      1.14
   -6    6    4     -3.16      3.09
   -6    6    3     17.51      5.64
   -6    6    2    -14.58     11.76
   -6    6    1      2.46     -1.78
    6    6    0     11.21     -6.47
    6    6    1     17.40     -8.31
    6    6    2     -6.82     -5.62
    6    6    3      1.74     13.97
    6    6    4     -8.08      5.64
    6    6    5     -4.54     -4.17
    6    6    6      6.24     -0.05
    6    6    7      5.05     -6.30
    6    6    8      9.68     10.86
    6    6    9     -9.12      0.29
    6    6   10    -13.46      9.58
    6    6   11      7.43     12.58
    6    6   12     15.99     -0.25
    6    6   13      6.17     -4.61
   -6    4   14     -9.12     -9.87
   -6    4   13     -7.90     -9.80
   -6    4   12     -1.28     -0.70
   -6    4   11      9.18      7.61
   -6    4   10     -1.19      7.77
   -6    4    9    -10.05      1.33
   -6    4    8    -13.06     -2.21
   -6    4    7     -3.51      0.63
   -6    4    6     -3.34     -4.13
   -6    4    5      2.63     -4.12
   -6    4    4      4.80      5.71
   -6    4    3     -7.42      4.83
   -6    4    2     -8.63     -1.09
   -6    4    1     -4.72      2.48
    6    4    0      5.93     -5.45
    6    4    1     10.87      9.08
    6    4    2     -1.92      4.46
    6    4    3    -13.51     -0.60
    6    4    4      4.62     -4.40
    6    4    5      2.96     -3.29
    6    4    6     -1.24      0.56
    6    4    7     -1.25     -0.24
    6    4    8     -4.89      2.19
    6    4    9     -9.74     -0.63
    6    4   10     15.90     -6.50
    6    4   11      8.58     15.24
    6    4   12     -9.26     14.44
    6    4   13    -13.27      0.85
   -6    2   14     -3.55    -15.34
   -6    2   13    -14.04     -5.30
   -6    2   12      5.04      1.82
   -6    2   11     12.59      5.48
   -6    2   10     -5.21      0.34
   -6    2    9     -3.82      4.59
   -6    2    8     -3.27     -4.48
   -6    2    7     -3.95     -2.13
   -6    2    6      6.53     -6.07
   -6    2    5      4.27     -4.72
   -6    2    4     -0.70      5.54
   -6    2    3      0.96      0.87
   -6    2    2     13.28     -5.04
   -6    2    1     -1.44      5.34
    6    2    0    -14.62     -7.45
    6    2    1    -12.90     -6.26
    6    2    2      5.34      4.11
    6    2    3      2.81      5.61
    6    2    4     -1.34     -5.23
    6    2    5     -6.16      1.20
    6    2    6     -6.50     -0.21
    6    2    7      0.30     -2.73
    6    2    8     -3.64     -6.66
    6    2    9     -8.12      2.09
    6    2   10     12.53      2.00
    6    2   11      5.31      6.38
    6    2   12     -9.35     -4.68
    6    2   13     -6.65     -9.44
   -6    0   14     -0.95    -10.84
   -6    0   13     -8.74    -24.45
   -6    0   12      7.55     16.97
   -6    0   11      7.01     11.86
   -6    0   10      5.99    -11.89
   -6    0    9    -10.66     -0.38
   -6    0    8      5.48      6.03
   -6    0    7    -11.23      1.70
   -6    0    6     -8.79    -14.43
   -6    0    5     -0.30    -10.15
   -6    0    4     19.09     13.00
   -6    0    3     29.94     12.98
   -6    0    2    -35.77     -6.45
   -6    0    1    -18.72      8.36
    6    0    0     20.96    -15.76
    6    0    1     42.76      1.32
    6    0    2     -3.81     11.53
    6    0    3     -1.64      0.51
    6    0    4    -11.19     -3.82
    6    0    5      4.44     -8.25
    6    0    6     15.03      0.11
    6    0    7     -0.72     -2.31
    6    0    8     -8.21      7.57
    6    0    9     -7.93     -4.87
    6    0   10     -3.98     -2.78
    6    0   11     -0.69     12.42
    6    0   12     10.38     -3.80
    6    0   13     10.76     -4.05
   -7   29    4    -16.62     -3.50
   -7   29    3      1.77      6.00
   -7   29    2     12.51     10.14
   -7   29    1      2.39      6.66
    7   29    0     -6.96      3.52
    7   29    1      1.65      6.17
    7   29    2     -0.19     -2.47
    7   29    3     -0.74      1.04
   -7   27    6      2.22      1.21
   -7   27    5      3.91      5.04
   -7   27    4      0.02      0.91
   -7   27    3      0.36     -4.78
   -7   27    2      3.90      1.71
   -7   27    1      4.13     -0.15
    7   27    0      1.67     -2.91
    7   27    1     -2.17      3.37
    7   27    2     -3.86      3.08
    7   27    3      0.18      3.12
    7   27    4     -1.03      0.89
    7   27    5      5.19      2.88
   -7   25    8     -8.99     13.92
   -7   25    7     -4.26      7.53
   -7   25    6     -9.17    -13.57
   -7   25    5    -14.54    -10.21
   -7   25    4     13.22     -2.62
   -7   25    3     21.95      6.92
   -7   25    2      6.41     12.31
   -7   25    1     -4.17     -1.36
    7   25    0      0.53      5.28
    7   25    1     -5.12     -5.66
    7   25    2     -5.19      2.49
    7   25    3      6.31      2.25
    7   25    4      8.80     -5.31
    7   25    5     -0.35     -7.24
    7   25    6     -9.85      2.95
    7   25    7     -7.17     -6.21
   -7   23    9     -4.82      0.32
   -7   23    8     -9.58      1.22
   -7   23    7     -2.31     -5.20
   -7   23    6      4.36      3.79
   -7   23    5      8.71      1.27
   -7   23    4     -2.41     -3.88
   -7   23    3      0.10      1.38
   -7   23    2      1.31      6.51
   -7   23    1      2.92     12.30
    7   23    0     -7.05      8.52
    7   23    1     -5.22      9.90
    7   23    2     -3.22      5.88
    7   23    3     -3.41     -0.66
    7   23    4      2.21     -4.13
    7   23    5     -5.53      6.29
    7   23    6      2.75      3.94
    7   23    7      5.76      4.26
    7   23    8     -2.58     -1.26
   -7   21   10     -7.35     -5.84
   -7   21    9    -10.11      7.43
   -7   21    8     -2.07     -0.38
   -7   21    7     -5.89     -2.60
   -7   21    6      0.21      2.33
   -7   21    5      5.56     -1.31
   -7   21    4      1.88     -4.75
   -7   21    3      4.27      3.73
   -7   21    2     -2.16      4.41
   -7   21    1     -0.94      0.20
    7   21    0     -2.14     -4.97
    7   21    1      4.51     -0.74
    7   21    2     -2.23     -2.64
    7   21    3      1.91      3.17
    7   21    4      2.27     -4.51
    7   21    5      7.79     -0.48
    7   21    6     -6.17      4.23
    7   21    7     -5.41      3.64
    7   21    8     11.90     -9.75
    7   21    9      8.40     -2.90
   -7   19   11     12.89     -3.41
   -7   19   10     20.22     10.83
   -7   19    9      1.48     14.27
   -7   19    8    -18.18     -2.35
   -7   19    7    -18.10     -3.92
   -7   19    6     -2.35     -3.95
   -7   19    5     -6.44      1.27
   -7   19    4     -1.68     -1.05
   -7   19    3      3.81      2.56
   -7   19    2      1.45      2.20
   -7   19    1      3.15     -4.47
    7   19    0      0.70      1.59
    7   19    1     -3.90     -1.88
    7   19    2    -11.37     -4.15
    7   19    3     -5.29     -2.14
    7   19    4      1.31      3.55
    7   19    5    -12.63     -2.40
    7   19    6      6.22     -0.57
    7   19    7      8.88     -7.84
    7   19    8      1.31      2.72
    7   19    9    -14.12     14.52
    7   19   10     -5.88     11.84
   -7   17   11      6.43     -4.86
   -7   17   10      2.79     -4.72
   -7   17    9      1.28     -3.63
   -7   17    8     -1.11      7.64
   -7   17    7      3.43      2.94
   -7   17    6     -7.02      7.98
   -7   17    5      2.77     -5.18
   -7   17    4     -1.14    -14.48
   -7   17    3      3.28     -4.84
   -7   17    2     -2.60      0.94
   -7   17    1      3.09     -0.44
    7   17    0      4.56      2.90
    7   17    1      2.09      2.09
    7   17    2      1.63      0.65
    7   17    3     -1.51      2.22
    7   17    4     -1.70      4.43
    7   17    5     -5.60      2.61
    7   17    6      1.51      1.58
    7   17    7      9.81      1.58
    7   17    8     11.44      6.04
    7   17    9     -5.49      6.57
    7   17   10     -7.73     -7.30
   -7   15   12     -2.63     17.03
   -7   15   11    -16.60      4.75
   -7   15   10     -4.36     -4.04
   -7   15    9      0.28     -0.20
   -7   15    8     -0.79      1.30
   -7   15    7     -4.87      1.18
   -7   15    6      1.68      4.45
   -7   15    5      1.84     -0.58
   -7   15    4      1.97     -3.01
   -7   15    3     -0.40     -2.34
   -7   15    2      1.94     -0.71
   -7   15    1      3.65      2.93
    7   15    0     -7.22     -0.08
    7   15    1     -2.66      5.43
    7   15    2      0.67      0.47
    7   15    3      0.62     -1.29
    7   15    4    -10.13     -0.51
    7   15    5      1.19     -2.18
    7   15    6     -1.32      4.69
    7   15    7     -4.63      8.08
    7   15    8      2.39     -4.48
    7   15    9      9.20     -5.67
    7   15   10    -10.64     11.28
    7   15   11     -9.68      7.41
   -7   13   13    -21.44     -9.32
   -7   13   12      1.29     -2.15
   -7   13   11     19.46      5.98
   -7   13   10     10.55      1.63
   -7   13    9     -0.10     -0.92
   -7   13    8      0.90     -2.84
   -7   13    7     -5.73      4.62
   -7   13    6      1.40     -0.11
   -7   13    5      2.54      0.16
   -7   13    4      0.10      2.68
   -7   13    3      5.40     -6.26
   -7   13    2      4.21     -3.12
   -7   13    1     -3.98     -3.86
    7   13    0    -15.60      0.67
    7   13    1     -2.65     -2.87
    7   13    2      6.16      2.55
    7   13    3     -0.12      4.45
    7   13    4      4.76      6.55
    7   13    5     -1.18     -2.76
    7   13    6      6.11     -6.75
    7   13    7      0.89     -6.08
    7   13    8     -6.07      6.07
    7   13    9     -9.15     -4.49
    7   13   10    -10.65      2.98
    7   13   11     15.02      9.82
   -7   11   13    -10.71     -8.63
   -7   11   12     -4.49      1.39
   -7   11   11     -2.17      6.52
   -7   11   10      2.99      0.98
   -7   11    9     -1.49     -4.97
   -7   11    8      3.54     -1.89
   -7   11    7      1.52     -3.39
   -7   11    6    -11.60      6.47
   -7   11    5      2.42      1.30
   -7   11    4      0.85     -2.40
   -7   11    3      2.35     -8.22
   -7   11    2     -0.97     -5.33
   -7   11    1      6.76    -10.76
    7   11    0     -8.67     -6.58
    7   11    1     -0.61      0.84
    7   11    2      2.65     -0.86
    7   11    3     -2.89     -0.76
    7   11    4     -7.90      0.16
    7   11    5      4.97      0.22
    7   11    6      7.11      4.59
    7   11    7     -1.48     -2.24
    7   11    8     -1.98      4.62
    7   11    9     -1.09     -2.02
    7   11   10      1.14     -1.94
    7   11   11     -2.98     -7.11
    7   11   12     -4.00     -3.73
   -7    9   13      7.75     -1.66
   -7    9   12      3.46     15.12
   -7    9   11      0.90      0.61
   -7    9   10     -1.17     -3.92
   -7    9    9     -6.03    -11.76
   -7    9    8     -1.27      2.67
   -7    9    7      0.27      3.41
   -7    9    6      5.80      3.71
   -7    9    5     -1.55      3.54
   -7    9    4     -3.02      0.25
   -7    9    3      5.33      3.73
   -7    9    2     -8.24     -8.84
   -7    9    1      3.88      0.73
    7    9    0     -3.57      2.36
    7    9    1     -8.47     11.86
    7    9    2    -12.68      6.17
    7    9    3      5.86     -6.67
    7    9    4     -6.96     -0.70
    7    9    5     -7.52      2.11
    7    9    6      3.60      1.30
    7    9    7     -5.70      2.59
    7    9    8      2.88      5.51
    7    9    9     -2.62     -7.65
    7    9   10     -7.59      1.88
    7    9   11     -8.97      8.52
    7    9   12      9.88      7.07
   -7    7   13     -6.51    -16.50
   -7    7   12     -8.21     -6.68
   -7    7   11      8.07     11.91
   -7    7   10      6.83     11.05
   -7    7    9     -3.36      1.05
   -7    7    8     -1.87     -1.42
   -7    7    7     -5.48      7.17
   -7    7    6     -2.48     -0.73
   -7    7    5      4.03     -3.54
   -7    7    4      0.19      2.50
   -7    7    3      3.00     -1.28
   -7    7    2      2.50      0.98
   -7    7    1     -2.45      0.65
    7    7    0     -9.39     -1.61
    7    7    1     11.34      2.22
    7    7    2      6.85      2.74
    7    7    3     -6.29      5.21
    7    7    4      3.48     -1.31
    7    7    5     -2.11     -0.25
    7    7    6     -3.39      0.72
    7    7    7     -0.40     -0.78
    7    7    8     -0.50      4.38
    7    7    9    -14.65     -3.56
    7    7   10    -11.29     -9.84
    7    7   11      7.27     -0.30
    7    7   12     -3.56      6.68
   -7    5   14      8.99     -0.51
   -7    5   13     -9.55    -17.30
   -7    5   12     -7.25    -10.63
   -7    5   11    -13.09      3.34
   -7    5   10      2.66     -5.07
   -7    5    9     -2.11     -4.33
   -7    5    8     -0.50     -2.60
   -7    5    7     -4.05     -4.75
   -7    5    6      5.46     -4.40
   -7    5    5     -0.97     -5.01
   -7    5    4    -10.59      6.51
   -7    5    3      2.91     -3.67
   -7    5    2      4.95     -2.20
   -7    5    1      8.92      7.75
    7    5    0     -8.26    -17.21
    7    5    1    -14.38     -4.57
    7    5    2     -3.44     -9.35
    7    5    3      8.07      6.68
    7    5    4     -1.82      5.82
    7    5    5      2.72     -4.12
    7    5    6     -1.92     -2.76
    7    5    7     -3.53     -3.16
    7    5    8     -4.39      8.15
    7    5    9      1.12      4.17
    7    5   10     13.09      1.02
    7    5   11      9.92      1.27
    7    5   12    -13.59     -4.72
    7    5   13     -8.16    -12.58
   -7    3   14     -3.42     -4.79
   -7    3   13      6.94     -4.30
   -7    3   12      2.87     17.64
   -7    3   11     -0.23     -0.97
   -7    3   10      4.53    -10.39
   -7    3    9     -2.71     -7.94
   -7    3    8      5.08     10.97
   -7    3    7     -0.78      6.40
   -7    3    6      2.81      6.67
   -7    3    5     -1.75      4.50
   -7    3    4      0.15     -0.49
   -7    3    3     15.31     12.49
   -7    3    2     -4.83     -3.41
   -7    3    1      1.18      9.45
    7    3    0     -1.38      8.22
    7    3    1      5.56     -2.34
    7    3    2      5.79     -1.24
    7    3    3      9.05     -5.26
    7    3    4    -10.71      5.51
    7    3    5     -1.95      1.86
    7    3    6     17.22      4.27
    7    3    7     -1.77      4.98
    7    3    8      9.79      3.16
    7    3    9      0.14     -4.59
    7    3   10     -0.77     -0.53
    7    3   11      2.79      6.29
    7    3   12      0.68      1.07
    7    3   13      3.51     -1.93
   -7    1   14     -5.26      2.96
   -7    1   13    -11.20      4.00
   -7    1   12      2.21     -5.96
   -7    1   11      3.91     -1.94
   -7    1   10     -4.55      1.20
   -7    1    9     -2.84     10.67
   -7    1    8      1.49     -3.37
   -7    1    7     -4.80      0.09
   -7    1    6     -0.55     -1.36
   -7    1    5      2.99     -3.33
   -7    1    4     -5.44      6.38
   -7    1    3     -7.47     -7.61
   -7    1    2     -8.59     -5.90
   -7    1    1     -1.01      3.61
    7    1    0      4.28     -4.91
    7    1    1      3.83      6.39
    7    1    2      3.13     -7.76
    7    1    3     -2.02     -3.43
    7    1    4     -3.10     -2.89
    7    1    5     -2.77      1.04
    7    1    6     -0.80      3.80
    7    1    7      0.33     -0.49
    7    1    8     -5.13    -12.42
    7    1    9     -6.40      1.00
    7    1   10     10.24     -3.62
    7    1   11     16.21      9.96
    7    1   12     -1.45      9.77
    7    1   13    -11.75      2.64
   -8   28    4      1.39      7.79
   -8   28    3      6.07      2.66
   -8   28    2     13.93      2.69
   -8   28    1     15.06     -1.44
    8   28    0     -0.36      0.51
    8   28    1    -12.42     -5.78
    8   28    2     -2.64     -3.92
    8   28    3      4.98     -3.74
   -8   26    6     -1.22      5.52
   -8   26    5     -8.36     -3.28
   -8   26    4     -9.04    -10.89
   -8   26    3     -2.22      1.86
   -8   26    2      4.05     12.60
   -8   26    1      0.40     14.74
    8   26    0     -1.90      9.80
    8   26    1     -3.93      8.96
    8   26    2     -3.20     -7.69
    8   26    3      1.62      1.41
    8   26    4     -1.42      3.74
    8   26    5     -6.84     -2.43
   -8   24    8     -0.27     -2.61
   -8   24    7     -0.58      1.46
   -8   24    6      1.25     -1.44
   -8   24    5     -3.89      0.56
   -8   24    4     -5.23      1.65
   -8   24    3      3.64      3.85
   -8   24    2     -0.14      1.02
   -8   24    1     -0.12     -3.30
    8   24    0     -5.11     -3.89
    8   24    1     -0.10     -4.02
    8   24    2     -3.73      0.82
    8   24    3      3.19      3.91
    8   24    4     -1.99      3.74
    8   24    5      5.70     -1.37
    8   24    6      6.20      0.51
   -8   22    9      0.39     -1.71
   -8   22    8     -2.65     -2.38
   -8   22    7     -8.40     -2.72
   -8   22    6     -2.51      0.40
   -8   22    5     -4.63     -4.45
   -8   22    4      5.17     -2.35
   -8   22    3      4.10      3.44
   -8   22    2     -9.82      8.15
   -8   22    1     -2.53     -1.60
    8   22    0      2.04      7.21
    8   22    1     -2.56     -2.05
    8   22    2     -2.70     -1.90
    8   22    3      3.36      0.39
    8   22    4      3.66     -6.42
    8   22    5     -6.15     -5.81
    8   22    6      1.14     -5.11
    8   22    7     -8.34     -9.08
    8   22    8      5.45    -16.67
   -8   20   10      1.85      1.30
   -8   20    9      3.23      4.08
   -8   20    8     -1.13     -7.43
   -8   20    7     10.51      0.12
   -8   20    6     -0.89      8.31
   -8   20    5     -5.61      3.25
   -8   20    4     -2.33     -7.93
   -8   20    3      0.06      3.82
   -8   20    2     -2.24      2.12
   -8   20    1     -3.73      5.90
    8   20    0     -1.82      5.37
    8   20    1     -5.72      6.97
    8   20    2     -6.29     -4.51
    8   20    3     -7.59     -2.94
    8   20    4     -1.07     -1.23
    8   20    5      1.61      8.15
    8   20    6     -1.81      4.45
    8   20    7     -0.17     -2.96
    8   20    8      0.54    -10.28
    8   20    9     -6.85     -9.82
   -8   18   11    -14.27     -3.50
   -8   18   10     -6.87     -2.27
   -8   18    9      2.43      4.06
   -8   18    8      0.96     -9.39
   -8   18    7     -7.56     -6.93
   -8   18    6      5.89     11.49
   -8   18    5     10.64      5.06
   -8   18    4      0.35     -3.30
   -8   18    3      1.53      1.96
   -8   18    2      2.84     -3.18
   -8   18    1      3.51     -1.98
    8   18    0     -0.31     -4.56
    8   18    1      3.28     -4.09
    8   18    2     -9.66      4.32
    8   18    3     -2.40      0.58
    8   18    4      0.59      0.01
    8   18    5     -0.82     -4.16
    8   18    6     -3.98      2.89
    8   18    7      4.99     -0.43
    8   18    8      0.86     -8.38
    8   18    9      2.88     -8.11
    8   18   10      2.31      7.87
   -8   16   11     -0.92      9.62
   -8   16   10      7.75      0.90
   -8   16    9     -3.65      0.15
   -8   16    8    -18.29      8.58
   -8   16    7    -18.11      2.88
   -8   16    6      4.55     -4.27
   -8   16    5      0.16     -4.85
   -8   16    4     -1.09      0.94
   -8   16    3      4.17      0.19
   -8   16    2    -11.79      8.30
   -8   16    1     -9.12     10.48
    8   16    0      3.97      6.78
    8   16    1      5.30      6.00
    8   16    2     -3.20     -0.77
    8   16    3     -5.54     -1.46
    8   16    4     -0.29     -2.72
    8   16    5     -2.24      9.04
    8   16    6      7.65     -4.70
    8   16    7      0.08     -7.52
    8   16    8     -2.67     -0.38
    8   16    9     -8.59      6.62
    8   16   10     -5.24     12.45
   -8   14   12     -0.08      6.45
   -8   14   11     -8.88     -1.91
   -8   14   10     -3.32     -0.93
   -8   14    9      5.85      4.38
   -8   14    8     -5.60     -1.07
   -8   14    7     -1.12     -0.52
   -8   14    6     -0.83      0.61
   -8   14    5      7.29     -0.48
   -8   14    4      0.23    -10.14
   -8   14    3      3.61      1.62
   -8   14    2     -1.49     -0.56
   -8   14    1      4.42     -1.55
    8   14    0     -2.42     -8.03
    8   14    1      1.01     -1.15
    8   14    2     -2.05     -5.39
    8   14    3     -4.95     -6.37
    8   14    4      0.93      0.60
    8   14    5      1.98      1.23
    8   14    6     12.37     -2.49
    8   14    7     10.32     -5.67
    8   14    8      5.53      7.26
    8   14    9     -3.58      3.72
    8   14   10      0.55     -6.81
    8   14   11      1.67     -1.05
   -8   12   12     -0.20     12.05
   -8   12   11     -7.32      5.48
   -8   12   10     -2.77     -3.36
   -8   12    9      4.06     -0.37
   -8   12    8     -0.13      3.66
   -8   12    7      0.14     -2.40
   -8   12    6      1.43      4.05
   -8   12    5      7.18      6.44
   -8   12    4      1.96      2.39
   -8   12    3     -1.30     -0.34
   -8   12    2      2.04     -2.63
   -8   12    1     -1.02     -4.03
    8   12    0     -2.94      5.23
    8   12    1      4.27      1.46
    8   12    2      4.84      2.57
    8   12    3      1.78     -2.49
    8   12    4     -5.48      1.28
    8   12    5     -4.27     -4.62
    8   12    6     -1.34      1.94
    8   12    7     -3.87     -2.58
    8   12    8      2.23     -0.79
    8   12    9      9.28     -2.93
    8   12   10     14.03      3.89
    8   12   11     -1.40      7.21
   -8   10   13     -1.25    -13.79
   -8   10   12      7.78     -1.55
   -8   10   11      7.09      8.66
   -8   10   10      5.42      1.93
   -8   10    9      4.80     -5.57
   -8   10    8      0.82     -0.44
   -8   10    7    -10.23      4.06
   -8   10    6      2.60      3.46
   -8   10    5      0.07     -5.59
   -8   10    4     -2.53     -4.60
   -8   10    3      7.98     -0.09
   -8   10    2     -3.37     -1.18
   -8   10    1     -9.80      6.92
    8   10    0      0.55      0.65
    8   10    1      5.58      1.17
    8   10    2      3.01      1.28
    8   10    3      2.43      0.83
    8   10    4      0.92     -5.73
    8   10    5      1.01     -1.04
    8   10    6     -0.31     -4.17
    8   10    7     -9.15     -8.79
    8   10    8     -3.67     -0.50
    8   10    9     -8.02      9.23
    8   10   10    -13.98     11.27
    8   10   11      7.88    -13.18
    8   10   12     11.87     -5.14
   -8    8   13     -5.56     -6.37
   -8    8   12    -10.10      0.78
   -8    8   11    -18.42     -8.34
   -8    8   10     -0.72      0.34
   -8    8    9      2.86     -0.13
   -8    8    8     -0.78      4.27
   -8    8    7     -4.47      1.01
   -8    8    6     -3.92      0.35
   -8    8    5     -0.86     -3.92
   -8    8    4     -5.05     -2.84
   -8    8    3      4.28      1.87
   -8    8    2     -7.84     -6.50
   -8    8    1      7.10     -0.90
    8    8    0     -1.36     -0.50
    8    8    1      2.74      0.70
    8    8    2     -4.73      0.14
    8    8    3      4.00     -2.07
    8    8    4     -1.47      4.05
    8    8    5     -0.10     -1.76
    8    8    6      6.80     -1.82
    8    8    7     -2.93     -2.35
    8    8    8      0.05      8.90
    8    8    9     -0.86     -3.58
    8    8   10     13.00     -6.10
    8    8   11      7.31     -3.75
    8    8   12     -8.78      6.08
   -8    6   13      3.26     -1.79
   -8    6   12     -9.56      6.35
   -8    6   11      3.88      1.53
   -8    6   10      3.32     -7.44
   -8    6    9      6.28     -9.21
   -8    6    8     -1.10      1.69
   -8    6    7      0.24      1.26
   -8    6    6      5.51      5.03
   -8    6    5      0.06      0.71
   -8    6    4      0.12      0.07
   -8    6    3     -0.72      5.36
   -8    6    2     -2.15    -14.12
   -8    6    1     -3.56     -8.19
    8    6    0    -10.63     13.72
    8    6    1    -13.90      6.22
    8    6    2      1.98      4.43
    8    6    3      4.87     -2.58
    8    6    4     -7.28      3.82
    8    6    5     -4.13      6.52
    8    6    6      4.68      7.29
    8    6    7     -8.44      8.22
    8    6    8      4.21     -6.23
    8    6    9      1.86     -2.87
    8    6   10      3.19     -8.21
    8    6   11     -3.77     -4.12
    8    6   12     -1.38      4.91
   -8    4   13      3.06      7.64
   -8    4   12     10.32      9.57
   -8    4   11      5.37      5.79
   -8    4   10     -4.99      0.49
   -8    4    9     -6.94     -0.03
   -8    4    8      7.57     -4.74
   -8    4    7      1.80      1.19
   -8    4    6      1.89      1.00
   -8    4    5      3.44      1.71
   -8    4    4     -2.30      4.14
   -8    4    3      2.35     -1.87
   -8    4    2    -11.17     -8.09
   -8    4    1     -1.95     -0.25
    8    4    0      4.86     -1.23
    8    4    1      6.89     -4.10
    8    4    2     -4.36     -7.20
    8    4    3     -5.99      2.90
    8    4    4     -7.65     -1.78
    8    4    5     -1.92      0.63
    8    4    6     -0.48      0.22
    8    4    7     -2.74     -0.72
    8    4    8      1.20     -6.10
    8    4    9     -3.81      6.38
    8    4   10    -13.39     -7.62
    8    4   11      8.03    -19.95
    8    4   12      9.48     -0.41
   -8    2   14      1.97      7.41
   -8    2   13     -8.54    -11.99
   -8    2   12     -9.82     -3.64
   -8    2   11    -17.87     -0.52
   -8    2   10      7.15     -2.97
   -8    2    9      4.80     -6.93
   -8    2    8      0.28     -4.77
   -8    2    7     -3.35     -0.73
   -8    2    6      0.41     -0.79
   -8    2    5      2.32     -6.68
   -8    2    4     -2.95     -1.40
   -8    2    3     -0.52      3.16
   -8    2    2    -16.58      4.25
   -8    2    1      2.88     14.85
    8    2    0      2.72     -3.56
    8    2    1      5.40     16.22
    8    2    2     -2.15      2.56
    8    2    3      1.51     -0.22
    8    2    4     -2.47      3.55
    8    2    5     -1.33     -1.27
    8    2    6     -0.31      3.07
    8    2    7     -4.00      1.45
    8    2    8      0.55     -1.15
    8    2    9     13.29      1.89
    8    2   10      5.68     -4.60
    8    2   11      0.95      0.03
    8    2   12     -4.98     11.82
   -8    0   14      5.92     10.99
   -8    0   13     12.53      2.39
   -8    0   12      2.23      0.38
   -8    0   11     -4.60      3.63
   -8    0   10      2.44     -1.05
   -8    0    9      2.19    -10.93
   -8    0    8     -0.15     -0.63
   -8    0    7      6.67      2.77
   -8    0    6      7.56      0.91
   -8    0    5     -2.29     -1.63
   -8    0    4     -0.38      8.35
   -8    0    3     -2.82     10.46
   -8    0    2     -4.30    -22.07
   -8    0    1     -5.99    -16.46
    8    0    0      5.30     11.74
    8    0    1     -0.15    -11.35
    8    0    2      8.05     -6.73
    8    0    3     -0.68     -0.56
    8    0    4     -9.48      7.61
    8    0    5     -3.21      2.66
    8    0    6      8.32     -6.88
    8    0    7     -2.84      3.17
    8    0    8     13.34     -5.43
    8    0    9      8.28      1.82
    8    0   10     -8.96     -5.21
    8    0   11    -12.48     -6.28
    8    0   12    -13.39      9.38
    8   24    7     -2.32      0.69
   -9   27    4     -4.89      1.01
   -9   27    3      1.22      0.71
   -9   27    2     -8.50     -2.41
   -9   27    1     -4.87     -5.92
    9   27    0     -3.97     -0.88
    9   27    1      5.82      0.88
    9   27    2     -0.93      2.17
    9   27    3     -3.67     -3.00
   -9   25    6      6.76     -0.12
   -9   25    5     18.50      2.05
   -9   25    4     -2.12     -1.15
   -9   25    3    -12.47      1.68
   -9   25    2     -4.88     -3.30
   -9   25    1      3.77     -5.82
    9   25    0      3.32      0.08
    9   25    1     -1.82     -2.13
    9   25    2     -1.32     -2.76
    9   25    3     -1.47     -1.96
    9   25    4      2.41      3.26
    9   25    5      5.61     -3.63
   -9   23    8     18.28    -10.13
   -9   23    7     20.23     13.37
   -9   23    6     -8.94     16.47
   -9   23    5    -13.71     -2.21
   -9   23    4      4.40     -4.90
   -9   23    3     -8.47     13.30
   -9   23    2    -10.60      4.91
   -9   23    1     -4.51     -5.26
    9   23    0      1.24      0.70
    9   23    1     -7.31     -7.95
    9   23    2     -5.20    -13.93
    9   23    3      6.41     -4.38
    9   23    4      1.19      6.00
    9   23    5     -0.60      5.73
    9   23    6     -6.09     -4.70
    9   23    7     -3.01    -10.02
   -9   21    9      6.78     -5.99
   -9   21    8     -1.07     -9.78
   -9   21    7     -6.08     -6.79
   -9   21    6      2.25      1.39
   -9   21    5      1.09      4.56
   -9   21    4      0.29      0.30
   -9   21    3     -0.44      5.51
   -9   21    2     -6.38      6.52
   -9   21    1     -6.99      2.09
    9   21    0     -8.25     10.11
    9   21    1      1.68     -1.55
    9   21    2     -0.79     -2.81
    9   21    3      0.75     -4.51
    9   21    4     -0.10      2.10
    9   21    5      0.73     -0.13
    9   21    6      6.72     -2.42
    9   21    7      5.01     -2.92
    9   21    8     -7.59     -8.15
   -9   19   10     -7.67     -1.44
   -9   19    9     -6.81     -8.42
   -9   19    8     -0.52      1.28
   -9   19    7      6.62      3.24
   -9   19    6      1.82      0.15
   -9   19    5      1.13     -3.09
   -9   19    4      2.83      0.27
   -9   19    3     -1.08     -0.45
   -9   19    2    -15.83      7.73
   -9   19    1     -6.74     13.00
    9   19    0      5.83      4.72
    9   19    1      7.72     -0.46
    9   19    2      3.01      0.40
    9   19    3     -5.03      2.68
    9   19    4     -7.16     -9.23
    9   19    5      6.14      1.28
    9   19    6     -0.19     -4.10
    9   19    7     -5.24     -3.33
    9   19    8      1.43    -13.56
    9   19    9     10.34     -1.98
   -9   17   11     -7.30     -7.21
   -9   17   10      1.69      4.62
   -9   17    9      0.27     10.60
   -9   17    8    -11.68    -14.35
   -9   17    7     -0.16    -10.99
   -9   17    6      8.58     -3.83
   -9   17    5     -2.90      6.89
   -9   17    4      9.24      2.03
   -9   17    3     10.70     -1.42
   -9   17    2     -8.10     -3.23
   -9   17    1     -4.76      0.35
    9   17    0      7.14      8.01
    9   17    1     11.77     12.61
    9   17    2     -4.30    -12.26
    9   17    3     -0.25    -12.54
    9   17    4     10.17     -1.48
    9   17    5      7.39      4.67
    9   17    6      5.54     -6.08
    9   17    7     -2.82     -6.93
    9   17    8      1.94     -6.59
    9   17    9      2.43     -5.91
   -9   15   11      0.25     -2.38
   -9   15   10     -3.11     -0.15
   -9   15    9     -2.11      1.49
   -9   15    8      1.71     -6.28
   -9   15    7     -1.67     -4.37
   -9   15    6      1.48     -2.34
   -9   15    5      5.41      4.58
   -9   15    4     -0.15      3.25
   -9   15    3     -3.81     -3.62
   -9   15    2      0.42     -0.73
   -9   15    1      5.99      1.45
    9   15    0     -2.33      0.88
    9   15    1     -0.81     -2.45
    9   15    2     -0.91      4.30
    9   15    3     -3.57      5.43
    9   15    4      4.79      1.80
    9   15    5     -8.28     -5.29
    9   15    6      0.67      0.25
    9   15    7      8.93     -5.84
    9   15    8      2.47      3.72
    9   15    9     -0.39     -3.67
    9   15   10     10.35     -6.31
   -9   13   12     -3.23      1.05
   -9   13   11      1.19      7.11
   -9   13   10      6.13      5.68
   -9   13    9     -6.48      1.80
   -9   13    8    -13.57      6.52
   -9   13    7     -5.33      0.44
   -9   13    6      2.07      2.82
   -9   13    5      0.44      1.58
   -9   13    4     -1.37      2.23
   -9   13    3     -0.43      2.40
   -9   13    2      1.25      4.82
   -9   13    1     -0.23      2.97
    9   13    0      4.54      3.30
    9   13    1     -5.54     -1.05
    9   13    2     -2.11      2.85
    9   13    3      0.27     -0.97
    9   13    4     -0.06     -5.11
    9   13    5     11.36      6.16
    9   13    6     -3.69      3.29
    9   13    7    -13.62     -9.24
    9   13    8     -0.93     -4.29
    9   13    9      8.50      9.70
    9   13   10      4.03     17.68
   -9   11   12     -4.06      4.06
   -9   11   11    -14.61    -13.43
   -9   11   10    -11.63     -6.27
   -9   11    9      2.83      7.32
   -9   11    8     -1.23      5.59
   -9   11    7     -1.17      2.91
   -9   11    6      6.87      2.42
   -9   11    5      0.72      0.17
   -9   11    4     -2.23     -7.53
   -9   11    3      3.02      5.18
   -9   11    2     -3.93      2.81
   -9   11    1      3.49      5.86
    9   11    0      2.19      3.10
    9   11    1      0.76      1.54
    9   11    2     -5.09      1.95
    9   11    3      4.41      0.66
    9   11    4      7.11      2.08
    9   11    5     -9.68      5.40
    9   11    6      0.78     -3.63
    9   11    7      8.67     -6.29
    9   11    8      9.66      3.51
    9   11    9     -4.05      3.43
    9   11   10      9.12     -3.36
    9   11   11      2.93      3.29
   -9    9   13      5.92    -10.92
   -9    9   12    -11.33     -7.22
   -9    9   11     -9.89     14.71
   -9    9   10      1.24      2.95
   -9    9    9      5.98     -3.36
   -9    9    8      0.26     -5.80
   -9    9    7     -0.46     -2.40
   -9    9    6     -1.85      1.48
   -9    9    5      0.63      3.50
   -9    9    4     -0.70      1.03
   -9    9    3      0.53     -0.89
   -9    9    2      0.32     -0.43
   -9    9    1     -0.21     -3.61
    9    9    0     -1.67      6.20
    9    9    1     -0.30     -0.11
    9    9    2      3.51      0.88
    9    9    3      0.51      5.54
    9    9    4      1.09      3.12
    9    9    5     -4.44     -2.66
    9    9    6      1.28     -1.16
    9    9    7     -5.85      2.36
    9    9    8     -2.06      1.72
    9    9    9      8.90      1.29
    9    9   10     16.44     -8.49
    9    9   11      5.02      3.15
   -9    7   13      9.21      5.28
   -9    7   12     19.17      2.08
   -9    7   11      7.55     -1.64
   -9    7   10    -10.12      1.45
   -9    7    9     -7.08      1.49
   -9    7    8      1.74      1.09
   -9    7    7      0.26     -2.26
   -9    7    6      7.45      2.16
   -9    7    5      4.31     -0.40
   -9    7    4     -0.51     -1.08
   -9    7    3      2.65      2.56
   -9    7    2     -1.07      0.21
   -9    7    1     -3.78      2.01
    9    7    0      8.64      5.94
    9    7    1      0.74     -3.84
    9    7    2     -2.37     -4.69
    9    7    3      0.44     -1.31
    9    7    4     -4.49     -7.72
    9    7    5      6.11    -10.59
    9    7    6     -0.93     -0.39
    9    7    7     -5.02     -2.31
    9    7    8      4.31     -8.95
    9    7    9      1.71      9.84
    9    7   10    -14.13     15.66
    9    7   11     -4.07    -14.47
   -9    5   13     -0.80     -6.66
   -9    5   12    -11.86     10.39
   -9    5   11     -3.63      0.83
   -9    5   10      8.76     -3.37
   -9    5    9      5.47     -8.34
   -9    5    8      0.74      4.68
   -9    5    7     -0.05      0.42
   -9    5    6     -2.24     -1.29
   -9    5    5      2.87     -3.43
   -9    5    4      2.40     -6.39
   -9    5    3      0.41      4.46
   -9    5    2     -0.21     -8.50
   -9    5    1      2.81      2.43
    9    5    0     -3.69      3.50
    9    5    1      1.93      0.32
    9    5    2     -3.16     11.55
    9    5    3     -4.21      5.00
    9    5    4     -1.35      2.88
    9    5    5     -1.06      0.60
    9    5    6      3.55     -3.81
    9    5    7     -0.21      0.42
    9    5    8      3.13      4.56
    9    5    9      1.07     -6.62
    9    5   10      5.69     -8.88
    9    5   11     -2.44      8.30
    9    5   12     -2.77     21.72
   -9    3   13      1.18    -16.22
   -9    3   12     -8.82    -18.44
   -9    3   11    -14.61     14.88
   -9    3   10      6.11      8.91
   -9    3    9      5.90     -6.32
   -9    3    8     -2.44     -5.76
   -9    3    7     -5.83     -7.58
   -9    3    6     -3.71     -4.69
   -9    3    5      2.53     -5.93
   -9    3    4     -1.92     -1.52
   -9    3    3     -4.30      3.23
   -9    3    2     -2.43     -7.49
   -9    3    1     -9.94    -10.58
    9    3    0     -5.04      3.93
    9    3    1     -1.03     -2.10
    9    3    2      2.80     -0.95
    9    3    3     -2.54      3.58
    9    3    4      1.35     -0.50
    9    3    5      1.22     -0.82
    9    3    6     -7.09     -5.48
    9    3    7     -0.96      6.20
    9    3    8      5.39     -5.63
    9    3    9      7.83     -9.71
    9    3   10     -5.23    -14.66
    9    3   11    -19.59     -6.47
    9    3   12    -16.13      8.18
   -9    1   13      8.30     -2.17
   -9    1   12      5.57      7.36
   -9    1   11     -2.31     -1.69
   -9    1   10      9.46     -2.49
   -9    1    9      2.30     -4.75
   -9    1    8     -2.20      0.54
   -9    1    7     -0.67      3.10
   -9    1    6      6.60     -0.28
   -9    1    5      4.21     -0.97
   -9    1    4     -4.54     -6.69
   -9    1    3      3.17      5.24
   -9    1    2      5.56      0.72
   -9    1    1      0.88     10.52
    9    1    0    -21.00     -7.89
    9    1    1    -14.24     -1.42
    9    1    2     -7.83      4.64
    9    1    3      3.41      5.70
    9    1    4      0.70     -1.27
    9    1    5      0.06     -1.70
    9    1    6     -0.51     -1.05
    9    1    7     -1.47      3.48
    9    1    8     -2.68      9.32
    9    1    9      9.72      3.25
    9    1   10      1.18    -12.49
    9    1   11     -7.68     -8.99
    9    1   12     -2.71      5.80
  -10   26    4     13.41      0.36
  -10   26    3     -4.50      2.95
  -10   26    2    -15.64      0.93
  -10   26    1     -5.16     -1.92
   10   26    0      8.68     -6.28
   10   26    1      7.28     -2.55
   10   26    2      1.45      3.74
   10   26    3      4.13     -3.54
  -10   24    6      0.60      1.74
  -10   24    5     -1.54      3.85
  -10   24    4      2.52     -1.86
  -10   24    3      4.33      2.44
  -10   24    2     -4.12      2.10
  -10   24    1     -4.26      4.07
   10   24    0     -5.01      5.01
   10   24    1      2.91     -0.38
   10   24    2      1.54      2.39
   10   24    3     -1.73      0.90
   10   24    4      2.47     -0.46
   10   24    5      6.87     -2.74
  -10   22    8     -3.42     -2.37
  -10   22    7     -0.39     -0.41
  -10   22    6      4.47     -5.34
  -10   22    5     12.76     -2.46
  -10   22    4     -0.35     -3.21
  -10   22    3     -7.52      2.94
  -10   22    2     -5.25      1.81
  -10   22    1     -4.51      3.34
   10   22    0      6.64      0.49
   10   22    1     11.90      1.64
   10   22    2      1.37      0.28
   10   22    3     -6.19     -1.97
   10   22    4      5.47      0.82
   10   22    5     16.20     -1.55
   10   22    6     -2.26     -9.78
  -10   20    9     -6.00     -0.20
  -10   20    8     -2.08     -3.28
  -10   20    7     -2.01      0.65
  -10   20    6      2.57      0.14
  -10   20    5      4.52     -5.47
  -10   20    4      7.42     -1.17
  -10   20    3     -2.28     -1.46
  -10   20    2     -8.77     -3.39
  -10   20    1     -4.37     -0.29
   10   20    0      0.34      7.69
   10   20    1     -1.39     11.33
   10   20    2     -5.37     -2.15
   10   20    3      8.90     -4.41
   10   20    4      2.69      5.01
   10   20    5     -0.75      0.03
   10   20    6      0.09    -10.70
   10   20    7     -6.43     -2.70
  -10   18   10      5.54      3.15
  -10   18    9     -2.48     -3.40
  -10   18    8      1.34      4.06
  -10   18    7     -3.86      0.24
  -10   18    6     -4.22     -4.80
  -10   18    5     -2.04      0.65
  -10   18    4     -3.38      3.08
  -10   18    3     -8.86     -1.83
  -10   18    2     -2.09      6.54
  -10   18    1     -2.23     13.06
   10   18    0     -8.72      9.48
   10   18    1     -4.55      2.20
   10   18    2     -3.26     -5.43
   10   18    3     -8.47     -1.23
   10   18    4      1.05     -5.01
   10   18    5      6.55     -4.03
   10   18    6      3.42      2.55
   10   18    7     -5.91     -1.13
   10   18    8      1.21     -2.31
  -10   16   11      5.91      0.15
  -10   16   10      6.62      1.40
  -10   16    9      1.83     -3.05
  -10   16    8      2.53      1.20
  -10   16    7      0.84      7.55
  -10   16    6     -2.53      1.08
  -10   16    5      5.21     -0.10
  -10   16    4     -2.89     -1.42
  -10   16    3     -5.28      0.11
  -10   16    2      5.45      3.24
  -10   16    1      2.39      2.18
   10   16    0      0.48     -0.86
   10   16    1     -1.27     -0.04
   10   16    2      7.64     -3.47
   10   16    3      1.53     -1.37
   10   16    4     -6.09      4.43
   10   16    5      8.87     -4.84
   10   16    6     -0.51      6.89
   10   16    7     -9.47      7.33
   10   16    8     -1.36     -5.20
   10   16    9     10.96     -6.09
  -10   14   11     -1.38    -11.07
  -10   14   10     -0.92     -7.84
  -10   14    9     -3.66      0.87
  -10   14    8     -0.32     -8.82
  -10   14    7      0.92     -5.28
  -10   14    6      1.70      2.88
  -10   14    5     -9.92     -3.51
  -10   14    4     -3.36     -6.22
  -10   14    3      5.08     -0.72
  -10   14    2     -0.91     -3.52
  -10   14    1      1.45      4.98
   10   14    0     -1.01      0.92
   10   14    1      2.57      2.36
   10   14    2     -4.46     -1.05
   10   14    3      4.72     -3.11
   10   14    4     -1.99     -2.34
   10   14    5     -5.82      7.30
   10   14    6     -0.41     -8.62
   10   14    7     -2.51    -12.73
   10   14    8      4.90     -6.39
   10   14    9      1.93      8.24
   10   14   10      0.84      2.42
  -10   12   12      0.31      0.31
  -10   12   11     -0.72     -1.40
  -10   12   10      1.07      1.00
  -10   12    9     -1.25      1.51
  -10   12    8      2.77     -4.14
  -10   12    7     -2.16      1.96
  -10   12    6      1.92      3.11
  -10   12    5     -4.22     -0.56
  -10   12    4     -4.62      0.93
  -10   12    3      3.39      0.55
  -10   12    2     -5.99     -3.62
  -10   12    1     -4.13      1.16
   10   12    0     -1.59      1.93
   10   12    1      2.97     -0.49
   10   12    2     -0.23     -3.77
   10   12    4      7.36     -7.04
   10   12    5     -8.69     -0.39
   10   12    6      3.49      9.00
   10   12    7     -1.71      4.64
   10   12    8      1.45     -0.30
   10   12    9     -0.36     -4.70
   10   12   10     -0.35    -11.74
  -10   10   12     -9.62      3.82
  -10   10   11      5.69     -0.17
  -10   10   10      4.40     -1.25
  -10   10    9     -4.43      0.55
  -10   10    8     -3.23      4.51
  -10   10    7      1.10      2.84
  -10   10    6      2.30     -1.38
  -10   10    5      6.35     -4.45
  -10   10    4     -0.02      4.63
  -10   10    3     -0.94      0.22
  -10   10    2      2.31      1.72
  -10   10    1     -2.16     -2.72
   10   10    0      7.10     -6.93
   10   10    1     -5.79     -0.35
   10   10    2      0.71      3.46
   10   10    3     -4.24     -5.33
   10   10    4     -5.39     -3.18
   10   10    5      3.75     -4.75
   10   10    6      5.95      7.23
   10   10    7     -1.98      1.67
   10   10    8      1.59      0.45
   10   10    9      8.33      4.79
   10   10   10     11.92     14.48
  -10    8   12     -5.40      7.93
  -10    8   11      2.08     -2.72
  -10    8   10     -4.31     -9.97
  -10    8    9      0.15     -2.43
  -10    8    8      3.16      4.87
  -10    8    7      3.83     -0.94
  -10    8    6     -2.14      1.33
  -10    8    5     -1.47     -0.42
  -10    8    4      1.81     -2.94
  -10    8    3     -0.72     -1.64
  -10    8    2      4.07     -5.58
  -10    8    1     -0.44      3.18
   10    8    0      5.60      3.59
   10    8    1     -0.74      0.51
   10    8    2     -0.95      0.96
   10    8    3     -1.18      0.05
   10    8    4     -2.08      1.25
   10    8    5     -5.77      0.28
   10    8    6      0.76     -4.47
   10    8    7      6.38     -0.29
   10    8    8      3.59     -1.29
   10    8    9     -3.56      3.22
   10    8   10      4.99     -4.02
   10    8   11     -3.23      9.69
  -10    6   13     -3.68    -13.60
  -10    6   12      2.22    -14.95
  -10    6   11    -13.23      4.33
  -10    6   10      1.33      7.79
  -10    6    9      2.30      0.78
  -10    6    8     -0.47     -1.14
  -10    6    7     -4.87     -3.37
  -10    6    6     -3.58      1.00
  -10    6    5      3.89      0.93
  -10    6    4     -2.99     -8.06
  -10    6    3      0.48      0.47
  -10    6    2      5.25      3.90
  -10    6    1      2.81      6.39
   10    6    0      0.90     -1.00
   10    6    1      3.74      1.21
   10    6    2      0.59     -0.74
   10    6    3      4.19     -1.84
   10    6    4      4.58     -5.67
   10    6    5     -0.13     -0.55
   10    6    6     -5.07     -4.08
   10    6    7     -1.03      2.94
   10    6    8      2.56      5.19
   10    6    9     15.87     -4.98
   10    6   10     11.28     -2.96
   10    6   11     -8.64     10.46
  -10    4   13     12.32     -6.78
  -10    4   12     13.89     -8.80
  -10    4   11      3.61     -7.37
  -10    4   10     -1.57      5.64
  -10    4    9     -1.40      7.58
  -10    4    8     -1.39      3.70
  -10    4    7     -1.96     -0.88
  -10    4    6      1.79      2.13
  -10    4    5     -1.18      5.53
  -10    4    4      0.50      2.67
  -10    4    3      4.33      3.17
  -10    4    2      7.55     -2.07
  -10    4    1     -4.02      4.75
   10    4    0    -15.90     -4.58
   10    4    1     -8.00     -1.42
   10    4    2      4.65      2.72
   10    4    3      5.06     -1.59
   10    4    4     -0.85     -1.14
   10    4    5      3.44      1.07
   10    4    6      2.20      3.66
   10    4    7      0.25      0.57
   10    4    8     -5.79      2.98
   10    4    9      8.35      1.10
   10    4   10      7.21      5.77
   10    4   11    -12.20      8.78
  -10    2   13     15.06     -1.05
  -10    2   12      2.29      4.07
  -10    2   11      5.73     -8.37
  -10    2   10      8.06     -6.33
  -10    2    9      2.52     -3.76
  -10    2    8      0.73      6.01
  -10    2    7      1.05      2.96
  -10    2    6      1.65     -0.12
  -10    2    5      1.05      2.96
  -10    2    4      4.12     -7.44
  -10    2    3      2.58     -7.93
  -10    2    2      8.27     -2.49
  -10    2    1      4.40     11.95
   10    2    0     -1.83      1.13
   10    2    1     -3.25     -3.66
   10    2    2     -3.66      5.59
   10    2    3     -0.19      7.13
   10    2    4      0.98     -1.19
   10    2    5      1.08      0.10
   10    2    6     -2.35     -0.57
   10    2    7      4.21      7.09
   10    2    8      3.78     10.84
   10    2    9     -9.58     -8.32
   10    2   10    -13.31    -11.89
   10    2   11     -6.56     12.27
  -10    0   13     -4.03    -12.03
  -10    0   12     17.46     -7.51
  -10    0   11    -11.15      2.04
  -10    0   10     -9.66     14.06
  -10    0    9     -6.57      1.30
  -10    0    8      1.45      0.36
  -10    0    7     -0.60     -6.85
  -10    0    6     -6.05      4.05
  -10    0    5     -0.22      4.50
  -10    0    4     -6.53    -13.37
  -10    0    3     -3.31     -0.19
  -10    0    2      7.40      5.51
  -10    0    1     10.24      5.80
   10    0    0     -1.43      1.08
   10    0    1     -7.48      4.54
   10    0    2     -2.68      0.51
   10    0    3      5.12      5.87
   10    0    4      0.73     -1.99
   10    0    5      5.02     -5.96
   10    0    6     -6.26     -1.18
   10    0    7     -5.67     -0.47
   10    0    8     -9.07     -3.12
   10    0    9      4.69     -5.96
   10    0   10      8.76      1.44
   10    0   11     -9.77     -0.72
   10   12    3      4.54      4.15
  -11   25    4     -1.20     -0.11
  -11   25    3      0.50      1.48
  -11   25    2      4.22      3.50
  -11   25    1      0.70      3.29
   11   25    0     -2.16     -1.99
   11   25    1      3.77      0.60
   11   25    2      5.49     -2.87
  -11   23    6     -3.15    -13.51
  -11   23    5      9.33     -6.04
  -11   23    4      2.81      4.92
  -11   23    3     -7.66     -4.44
  -11   23    2    -10.19    -10.00
  -11   23    1     -2.63      1.87
   11   23    0      4.03     -6.98
   11   23    1     -3.16     13.42
   11   23    2     -8.20     21.61
   11   23    3      2.68      3.07
   11   23    4      4.93     -7.01
   11   23    5      2.18     -5.01
  -11   21    8     -0.22      6.10
  -11   21    7      6.44     -7.53
  -11   21    6      0.21     -2.38
  -11   21    5      2.75      2.62
  -11   21    4      2.49     -0.12
  -11   21    3     -0.74      3.52
  -11   21    2      6.89      0.35
  -11   21    1     -1.88     -1.83
   11   21    0     -2.43      2.67
   11   21    1      4.45     -2.88
   11   21    2      3.60      3.97
   11   21    3     -8.55      1.33
   11   21    4     -3.45     -0.10
   11   21    5     10.48     -5.51
   11   21    6      1.62     -4.97
  -11   19    9      5.85    -10.59
  -11   19    8      4.64     -5.54
  -11   19    7    -12.60      6.61
  -11   19    6     -4.40     -5.57
  -11   19    5      7.03     -9.52
  -11   19    4      3.28     -9.02
  -11   19    3     -1.68     -1.16
  -11   19    2      6.21     -2.66
  -11   19    1      2.50      0.60
   11   19    0      3.99     -5.92
   11   19    1      1.79      7.28
   11   19    2     -6.80     -2.72
   11   19    3      1.28     -9.81
   11   19    4     17.41     12.89
   11   19    5     12.18      3.13
   11   19    6     -5.71     -1.60
   11   19    7    -10.25      8.20
  -11   17   10     -5.08     -8.34
  -11   17    9    -12.14     -2.43
  -11   17    8     -2.54     -0.89
  -11   17    7     -2.42     -8.05
  -11   17    6     -4.35     -2.56
  -11   17    5     -0.41     -2.15
  -11   17    4     -8.47     -4.83
  -11   17    3     -9.29      2.89
  -11   17    2      1.10     -1.33
  -11   17    1      0.87      1.92
   11   17    0     -4.00      4.63
   11   17    1      1.19     -0.86
   11   17    2     -5.79     -1.02
   11   17    3     -1.85    -10.73
   11   17    4     -4.30     -4.44
   11   17    5      5.18     -3.48
   11   17    6     -0.40    -14.55
   11   17    7     -8.42     -4.85
   11   17    8     -8.34      3.14
  -11   15   10     -1.33      1.85
  -11   15    9      1.48     -3.27
  -11   15    8      5.06      6.27
  -11   15    7     -1.96      2.75
  -11   15    6     -5.21      2.69
  -11   15    5     -4.43     -5.99
  -11   15    4     -3.90     -0.70
  -11   15    3      3.32      4.37
  -11   15    2      0.93      1.96
  -11   15    1     -8.92      5.99
   11   15    0     -0.89      6.76
   11   15    1      4.79     -0.52
   11   15    2     -4.47     -7.03
   11   15    3      2.34     -2.67
   11   15    4     -2.10     -6.06
   11   15    5     -2.01      7.85
   11   15    6      6.53     12.81
   11   15    7     -7.03      5.46
   11   15    8      4.48    -10.00
   11   15    9     -2.72     -6.61
  -11   13   11      2.54     -3.94
  -11   13   10     -1.72      1.83
  -11   13    9      3.65      0.49
  -11   13    8      5.13      3.93
  -11   13    7     -7.46      9.82
  -11   13    6      3.33     -2.29
  -11   13    5      8.22    -12.02
  -11   13    4     -8.29     -0.04
  -11   13    3     -3.04      7.76
  -11   13    2     -2.54      3.18
  -11   13    1     -1.62     -8.02
   11   13    0      0.89     -9.59
   11   13    1      1.73      4.72
   11   13    2      4.94     -2.43
   11   13    3     -4.94      0.14
   11   13    4     -3.39      2.62
   11   13    5     -2.91    -10.02
   11   13    6     15.85      5.05
   11   13    7     -1.19     15.27
   11   13    8    -11.97      3.64
   11   13    9     -9.37     -8.56
  -11   11   11      3.40     -0.93
  -11   11   10      4.56     -7.34
  -11   11    9      2.38     -4.31
  -11   11    8      5.17     -1.81
  -11   11    7     -0.89     -1.98
  -11   11    6     -9.75      0.26
  -11   11    5      1.59     -0.38
  -11   11    4      1.01      0.01
  -11   11    3     -2.85     -1.26
  -11   11    2      2.65     -4.33
  -11   11    1      2.19     -0.01
   11   11    0      1.90      0.31
   11   11    1      0.46     -4.96
   11   11    2      0.85     -5.70
   11   11    3      2.39     -2.26
   11   11    4     -1.27      1.27
   11   11    5     -0.75     -0.23
   11   11    6     -7.31     -3.24
   11   11    7     -4.04     -4.16
   11   11    8      5.75     -7.77
   11   11    9      2.94      8.13
   11   11   10     -6.05      3.61
  -11    9   12      8.44      3.37
  -11    9   11    -10.24    -13.70
  -11    9   10     -7.07     -2.43
  -11    9    9      1.60      7.41
  -11    9    8      0.15      3.80
  -11    9    7     -1.30     -2.11
  -11    9    6      6.92      4.87
  -11    9    5      2.89     -0.25
  -11    9    4     -6.91     -2.63
  -11    9    3     -1.79      9.70
  -11    9    2      5.38      0.82
  -11    9    1      0.91      1.06
   11    9    0     -4.13     -0.82
   11    9    1     -0.06     -6.43
   11    9    2     -3.22      0.33
   11    9    3      5.63      3.36
   11    9    4      2.21     -2.85
   11    9    5      0.32      1.15
   11    9    6      0.92     -1.20
   11    9    7     -4.09      7.75
   11    9    8      0.63      7.15
   11    9    9      1.92     -2.60
   11    9   10      0.95     -6.05
  -11    7   12     -8.77     -0.67
  -11    7   11      9.33     -3.85
  -11    7   10      9.36     -9.81
  -11    7    9     -2.50     -0.47
  -11    7    8     -1.69      4.70
  -11    7    7     -2.82     -3.03
  -11    7    6     -7.05     -2.61
  -11    7    5      0.34      2.28
  -11    7    4      5.35      2.41
  -11    7    3      8.75     -0.51
  -11    7    2     -3.80      1.79
  -11    7    1     -6.87      0.68
   11    7    0     -0.46     -7.13
   11    7    1      3.40     10.01
   11    7    2      7.85      4.20
   11    7    3      2.95     -5.07
   11    7    4      1.37     -1.27
   11    7    5     -3.13      4.56
   11    7    6      7.96     13.02
   11    7    7      3.35      9.26
   11    7    8      1.82      7.53
   11    7    9     11.89      1.09
   11    7   10     12.33      6.82
  -11    5   12     -0.75      1.32
  -11    5   11      0.80     -7.93
  -11    5   10     -2.62     -7.04
  -11    5    9      2.67     -0.67
  -11    5    8      3.21      3.17
  -11    5    7      2.07      3.35
  -11    5    6     -3.62      0.61
  -11    5    5     -3.67     -2.79
  -11    5    4     -6.06     -3.11
  -11    5    3     -2.09     -7.98
  -11    5    2      2.64     -4.59
  -11    5    1     -4.85      1.52
   11    5    0      4.27     -1.34
   11    5    1     -3.90      0.43
   11    5    2     -3.45     -0.22
   11    5    3     -1.93      0.99
   11    5    4     -0.42      4.09
   11    5    5      0.41     -0.54
   11    5    6     -1.39     -2.49
   11    5    7      0.21      1.43
   11    5    8     -5.69      4.73
   11    5    9     -7.81      3.36
   11    5   10     -5.94    -10.31
  -11    3   12     23.52      9.25
  -11    3   11      2.75    -16.95
  -11    3   10     -8.62     -1.21
  -11    3    9      1.96      6.98
  -11    3    8     -1.44     12.09
  -11    3    7      2.55      1.50
  -11    3    6      2.75     -0.75
  -11    3    5     -4.19     -0.31
  -11    3    4     -3.30     -8.77
  -11    3    3      1.95      7.44
  -11    3    2     11.20      4.98
  -11    3    1      3.55      2.63
   11    3    0      3.08      1.44
   11    3    1      4.54      0.01
   11    3    2     -5.78      2.67
   11    3    3      2.23      0.70
   11    3    4      0.02     -0.31
   11    3    5     -0.82     -2.38
   11    3    6     -1.45      2.22
   11    3    7     -4.37     -3.88
   11    3    8     -1.98     -5.05
   11    3    9     11.10      1.96
   11    3   10     16.32     12.86
   11    3   11     -4.43     10.65
  -11    1   12    -10.99     -4.78
  -11    1   11     -3.63     -1.01
  -11    1   10      6.85      9.47
  -11    1    9      1.73      8.48
  -11    1    8     -2.30      7.18
  -11    1    7     -1.70     -1.91
  -11    1    6      2.88      0.06
  -11    1    5     -3.20      4.79
  -11    1    4      1.79      2.73
  -11    1    3      6.63      1.70
  -11    1    2      9.73     -4.83
  -11    1    1      6.01     -0.34
   11    1    0      4.31      7.68
   11    1    1      4.58     -4.88
   11    1    2      0.22     -0.40
   11    1    3     -0.82     -2.24
   11    1    4     -3.27      1.04
   11    1    5      1.13      2.29
   11    1    6     -3.60     -1.54
   11    1    7     -3.27      2.77
   11    1    8      0.15     12.64
   11    1    9     -3.75      1.95
   11    1   10    -14.55     -0.30
   11    1   11     -3.68      7.88
  -12   24    4      3.33     -3.11
  -12   24    3     -3.19      4.31
  -12   24    2      6.07     -2.56
  -12   24    1      1.23     -7.12
   12   24    0     -0.48      0.59
   12   24    1     -1.55     -4.86
   12   24    2      4.43      4.83
  -12   22    6      0.63      8.14
  -12   22    5     -5.40      0.32
  -12   22    4      1.48     -4.21
  -12   22    3      3.93     -1.60
  -12   22    2      4.16     -1.05
  -12   22    1      1.46      1.53
   12   22    0      0.69     -4.49
   12   22    1      3.11     -0.25
   12   22    2      1.49     -0.75
   12   22    3      1.33     -3.10
   12   22    4      2.13      0.85
  -12   20    7    -10.04     -5.50
  -12   20    6     -8.26     -7.97
  -12   20    5     -0.94      6.64
  -12   20    4     -3.67      3.78
  -12   20    3     -9.08      2.08
  -12   20    2     -1.21     -0.43
  -12   20    1      0.49     -0.57
   12   20    0      0.14     -1.22
   12   20    1     -0.69      0.34
   12   20    2     -1.52      8.94
   12   20    3      0.11     -2.69
   12   20    4      2.77      1.98
   12   20    5      3.92      0.67
  -12   18    8      2.25      3.94
  -12   18    7     -1.39     -1.43
  -12   18    6     -8.39     -1.12
  -12   18    5     -1.35      0.33
  -12   18    4      0.06      1.43
  -12   18    3     -1.72      2.35
  -12   18    2      1.18     -1.14
  -12   18    1     -1.37     -6.11
   12   18    0      2.00      0.97
   12   18    1     -0.20     -2.70
   12   18    2      6.65      7.17
   12   18    3      2.50      3.80
   12   18    4    -11.35      6.57
   12   18    5    -11.47      9.22
   12   18    6      6.26      9.59
  -12   16    9      3.32     -5.17
  -12   16    8     -5.18      3.99
  -12   16    7    -15.57      5.77
  -12   16    6      1.79     -4.68
  -12   16    5      0.96    -12.65
  -12   16    4      0.88      2.53
  -12   16    3      4.12      6.49
  -12   16    2     -4.29     -1.45
  -12   16    1      1.56     -1.08
   12   16    0     -1.97     -4.95
   12   16    1      4.96      3.38
   12   16    2     -4.67     -3.23
   12   16    3     -6.45     -3.04
   12   16    4      8.77      0.26
   12   16    5      4.48      3.14
   12   16    6      1.73      0.02
   12   16    7     -8.97     11.53
  -12   14   10     -0.80     -0.46
  -12   14    9     -1.74     -1.73
  -12   14    8      2.91      3.12
  -12   14    7     -6.36     -4.95
  -12   14    6    -10.45    -14.86
  -12   14    5      6.67      3.26
  -12   14    4      9.70      5.63
  -12   14    3     -0.92     -2.84
  -12   14    2      4.39     -3.67
  -12   14    1      1.30      7.25
   12   14    0      1.72      1.99
   12   14    1      6.34     -3.64
   12   14    2     -0.31     -1.24
   12   14    3     -9.26     -1.77
   12   14    4      9.69      7.41
   12   14    5     15.69     -0.15
   12   14    6    -14.17     -4.47
   12   14    7    -14.19      2.46
   12   14    8     -3.06      2.16
  -12   12   10     -2.07      2.12
  -12   12    9      2.55     -2.81
  -12   12    8     -4.26     -2.88
  -12   12    7      0.01     -2.94
  -12   12    6     -0.94      1.24
  -12   12    5      2.75      1.32
  -12   12    4     -1.64      1.35
  -12   12    3     -0.32      2.23
  -12   12    2      7.35      1.12
  -12   12    1      0.63      3.28
   12   12    0      2.89      4.67
   12   12    1      7.57     -7.95
   12   12    2     -0.49      1.95
   12   12    3     -0.52      0.91
   12   12    4      2.60      1.82
   12   12    5      4.12      3.38
   12   12    6      0.17     -7.81
   12   12    7      0.42      7.49
   12   12    8      3.08     -1.37
   12   12    9     -3.67     -7.85
  -12   10   11      2.65     -0.98
  -12   10   10      1.06      3.00
  -12   10    9      2.40     -1.73
  -12   10    8     -4.06      1.37
  -12   10    7     -8.77     -1.02
  -12   10    6     -2.70     -1.84
  -12   10    5      2.59      1.75
  -12   10    4      1.23     -0.56
  -12   10    3      5.88     -1.49
  -12   10    2     -6.93      2.31
  -12   10    1      5.53      7.06
   12   10    0    -10.50     -1.76
   12   10    1     -4.20     19.51
   12   10    2     -1.57     -3.14
   12   10    3     -0.06      3.16
   12   10    4      2.76      7.07
   12   10    5     -2.36      6.66
   12   10    6      7.92     -0.61
   12   10    7     -2.12      4.40
   12   10    8      1.35     -1.44
   12   10    9     -0.77     -6.06
  -12    8   11     -1.37      2.00
  -12    8   10      4.55      7.58
  -12    8    9      6.24     -2.45
  -12    8    8      2.51     -7.83
  -12    8    7     -0.90      1.53
  -12    8    6     -2.36     -5.16
  -12    8    5      2.95      3.03
  -12    8    4     -8.01      1.63
  -12    8    3     -1.81     -3.47
  -12    8    2      2.86      2.70
  -12    8    1     -2.87     -1.90
   12    8    0     -5.36     -1.94
   12    8    1     -1.67     -1.59
   12    8    2     -2.29     -6.99
   12    8    3     -7.53     -0.90
   12    8    4      4.61      1.99
   12    8    5      1.17      0.23
   12    8    6    -13.38      0.90
   12    8    7     -5.92     -3.79
   12    8    8      5.87     -5.28
   12    8    9      1.64     -4.89
  -12    6   12      5.14      6.89
  -12    6   11     -5.69    -15.55
  -12    6   10     -7.95     -8.65
  -12    6    9      5.29      4.16
  -12    6    8     -1.23      5.70
  -12    6    7      2.75      3.88
  -12    6    6      2.57      1.29
  -12    6    5     -4.93     -0.20
  -12    6    4     -2.72      1.52
  -12    6    3     -0.94      4.54
  -12    6    2      7.29      2.93
  -12    6    1      7.59      5.08
   12    6    0      5.98      1.23
   12    6    1     -1.37     -4.11
   12    6    2     -4.51      2.34
   12    6    3      0.60      1.63
   12    6    4     -1.14      2.76
   12    6    5     -3.26      0.07
   12    6    6      1.32      4.27
   12    6    7      4.25      6.28
   12    6    8      1.01     -2.11
   12    6    9     -0.70      1.54
   12    6   10      0.95      1.09
  -12    4   12    -14.92      1.37
  -12    4   11     12.00      1.74
  -12    4   10     10.91      2.32
  -12    4    9     -5.18      0.16
  -12    4    8     -1.40      2.54
  -12    4    7      2.76     -3.14
  -12    4    6      0.31      2.20
  -12    4    5     -0.72      3.35
  -12    4    4     -3.00     -3.42
  -12    4    3     -4.34      1.25
  -12    4    2      8.21     -1.15
  -12    4    1     14.69     -3.82
   12    4    0      6.52     12.82
   12    4    1     -4.89      1.56
   12    4    2     -2.48      0.45
   12    4    3      0.03     -5.00
   12    4    4     -0.09     -2.00
   12    4    5      2.00      1.27
   12    4    6      0.08     -1.93
   12    4    7     -6.80      2.67
   12    4    8      5.53     19.09
   12    4    9      2.31     11.08
   12    4   10    -13.07     -0.74
  -12    2   12    -15.02      1.97
  -12    2   11     -7.91      0.65
  -12    2   10      0.59      6.19
  -12    2    9      6.85      1.78
  -12    2    8     -2.08      1.98
  -12    2    7     -3.08     -1.49
  -12    2    6      0.25      0.48
  -12    2    5     -3.39      5.26
  -12    2    4     -8.43      5.51
  -12    2    3     -4.61      4.73
  -12    2    2      8.14     -8.17
  -12    2    1      6.57     -8.41
   12    2    0      7.37     -0.21
   12    2    1     -8.48    -11.03
   12    2    2     -6.57     -4.74
   12    2    3      0.56     -4.80
   12    2    4      3.86     -0.46
   12    2    5     -1.44      1.22
   12    2    6     -6.42      3.83
   12    2    7     -0.32     -0.99
   12    2    8     -0.68      0.04
   12    2    9     -1.27      0.02
   12    2   10      2.24      1.80
  -12    0   12     15.86     11.51
  -12    0   11     13.80     -4.77
  -12    0   10     -1.09     -1.43
  -12    0    9     12.54     -0.69
  -12    0    8     -5.21     -3.29
  -12    0    7     -0.92      1.75
  -12    0    6      4.11     -0.89
  -12    0    5     -5.94     -4.37
  -12    0    4     -2.52     -3.21
  -12    0    3     -3.91     -0.40
  -12    0    2     10.78      2.84
  -12    0    1      5.53      1.44
   12    0    0     -0.70      2.56
   12    0    1     -1.27     -7.45
   12    0    2     -7.41      0.12
   12    0    3     -1.98     -2.66
   12    0    4      4.28      0.73
   12    0    5      1.78      5.03
   12    0    6      5.04     -0.03
   12    0    7      0.00     -3.69
   12    0    8     -2.29     -0.79
   12    0    9     10.99      6.39
   12    0   10     20.61      0.02
  -13   23    3      2.58     -4.24
  -13   23    2      1.23     -0.02
  -13   23    1      1.69      2.58
   13   23    0     -0.68     -3.48
  -13   21    5     -4.93     -1.52
  -13   21    4     -2.82     -2.31
  -13   21    3     -0.72     -2.42
  -13   21    2     -0.71      1.45
  -13   21    1     -1.62      1.81
   13   21    0     -0.18     -0.81
   13   21    1     -2.91      3.09
   13   21    2      8.30      0.06
   13   21    3      3.38      7.95
  -13   19    7      0.73      7.20
  -13   19    6      1.96      7.80
  -13   19    5     -1.38     -4.20
  -13   19    4      2.07      3.09
  -13   19    3      2.09      5.14
  -13   19    2     -0.18     -1.21
  -13   19    1      5.47      1.81
   13   19    0      0.81     -3.66
   13   19    1     -1.72     -4.78
   13   19    2      3.26      4.80
   13   19    3     -1.03      1.49
   13   19    4     -8.91    -12.57
   13   19    5     -1.65     -7.71
  -13   17    8     -3.25     -0.57
  -13   17    7    -10.52     -2.61
  -13   17    6     -1.39     -4.88
  -13   17    5      6.42      4.22
  -13   17    4     11.71      2.05
  -13   17    3     -1.29     -1.08
  -13   17    2      0.10      1.80
  -13   17    1     -0.45      0.58
   13   17    0      6.25      0.82
   13   17    1      5.47     -8.63
   13   17    2      8.91      1.52
   13   17    3     -4.47      9.13
   13   17    4     -1.48     10.75
   13   17    5     -2.04      3.12
  -13   15    9      8.91      3.71
  -13   15    8      4.81     -0.41
  -13   15    7     -3.13      0.55
  -13   15    6     -6.65     -0.72
  -13   15    5      3.21      9.13
  -13   15    4     -0.58      6.18
  -13   15    3    -10.62     -3.07
  -13   15    2     -5.90     -5.93
  -13   15    1      3.53     -0.40
   13   15    0      7.94     -7.46
   13   15    1     -0.49     -5.73
   13   15    2      0.46      9.84
   13   15    3     -6.77      1.96
   13   15    4      3.06     -1.84
   13   15    5      0.55      7.63
   13   15    6     -3.84      0.72
   13   15    7      9.97      8.77
  -13   13    9      5.36     -4.62
  -13   13    8     -8.97      2.08
  -13   13    7     -0.65     -1.30
  -13   13    6      1.91      0.85
  -13   13    5     -2.19      2.09
  -13   13    4     -0.55      0.11
  -13   13    3      4.76     -1.66
  -13   13    2     -2.62     -5.94
  -13   13    1      2.65      7.73
   13   13    0    -13.29      0.90
   13   13    1      2.75      1.41
   13   13    2     -3.88     -1.71
   13   13    3     -0.49      3.18
   13   13    4      1.49      0.63
   13   13    5      5.87      6.07
   13   13    7     -1.62     -1.63
  -13   11   10     -4.77      5.82
  -13   11    9     -1.97     -1.72
  -13   11    8      5.08     -2.26
  -13   11    7      0.57     -1.57
  -13   11    6      1.92    -13.98
  -13   11    5     -3.68      0.46
  -13   11    4     -1.60      1.64
  -13   11    3      5.11     -1.18
  -13   11    2      4.26      0.67
  -13   11    1      0.39      4.73
   13   11    0     -2.67     -4.19
   13   11    1      2.78      3.33
   13   11    2     -5.23      1.12
   13   11    5      6.73      2.09
   13   11    6    -10.76     10.79
   13   11    7     -6.13     12.49
   13   11    8     -2.29      2.32
  -13    9   10     -2.22     -8.55
  -13    9    9     -4.95     -9.37
  -13    9    8     -0.45     -6.24
  -13    9    7      5.90      5.09
  -13    9    6     -0.52     -1.99
  -13    9    5      2.88     -0.64
  -13    9    4      2.76      1.13
  -13    9    3     -3.54     -1.81
  -13    9    2      1.92      0.13
  -13    9    1      3.55      4.28
   13    9    0      4.97      8.05
   13    9    1     -1.75      0.76
   13    9    2      6.02      3.97
   13    9    3     -2.10      5.91
   13    9    4      4.25      1.23
   13    9    5      7.61      1.61
   13    9    6     -0.55      2.16
   13    9    7      3.30      1.09
   13    9    8     -1.37     -4.61
  -13    7   11      6.63     -1.38
  -13    7   10      0.10      6.17
  -13    7    9     -3.23     -1.54
  -13    7    8     -4.93     -5.76
  -13    7    7      3.47     -4.53
  -13    7    6      4.14     -1.21
  -13    7    5     -2.05      1.73
  -13    7    4     -3.68      0.42
  -13    7    3      0.09      2.26
  -13    7    2      0.46     -1.02
  -13    7    1      0.72      7.62
   13    7    0     -6.09      6.18
   13    7    1     -0.57      5.05
   13    7    2     -4.05      0.11
   13    7    3     -4.73     -2.13
   13    7    4      1.51     -4.92
   13    7    5      3.69      1.35
   13    7    6     -1.07     -5.79
   13    7    7     -7.50     -2.31
   13    7    8      3.64     -1.07
   13    7    9     -1.17     -1.70
  -13    5   11      0.04      2.31
  -13    5   10     -2.29      4.38
  -13    5    9      3.52      0.80
  -13    5    8      5.36     -8.16
  -13    5    7     -2.12     -2.64
  -13    5    6     -1.79      0.92
  -13    5    5     -1.69     10.47
  -13    5    4      0.10      1.97
  -13    5    3      3.15      2.28
  -13    5    2      1.41      2.36
  -13    5    1      1.51     -1.64
   13    5    0     -4.09     -4.16
   13    5    1      1.63     -0.66
   13    5    2      3.95     -4.94
   13    5    3     -0.72     -4.09
   13    5    4      7.40     -3.69
   13    5    5      4.62      3.50
   13    5    6     -8.99      2.15
   13    5    7     -4.57     -6.80
   13    5    8     13.08     -1.93
   13    5    9      9.41     -3.06
  -13    3   11      7.85     -2.35
  -13    3   10     -4.32     -1.90
  -13    3    9     -3.68      4.35
  -13    3    8     -2.21    -11.34
  -13    3    7      0.45     -1.66
  -13    3    6     -0.52      4.05
  -13    3    5     -2.42     -0.30
  -13    3    4      2.33      0.69
  -13    3    3      1.40     -4.48
  -13    3    2     -1.28     -1.89
  -13    3    1      1.47      4.71
   13    3    0      8.71      0.34
   13    3    1     -1.62     -7.06
   13    3    2      0.82      0.58
   13    3    3      0.39      5.63
   13    3    4     -1.52      0.46
   13    3    5     -0.41      0.98
   13    3    6      2.00      2.86
   13    3    7      6.40      3.25
   13    3    8     -3.63      0.22
   13    3    9     -0.99     -1.24
  -13    1   11     17.02      0.10
  -13    1   10     -6.72     -0.18
  -13    1    9     -5.47     -0.69
  -13    1    8      0.96      1.80
  -13    1    7      2.94     -0.78
  -13    1    6     -0.82      1.38
  -13    1    5     -2.72      2.95
  -13    1    4     -0.18      4.22
  -13    1    3     -6.73     -0.59
  -13    1    2      2.57     -0.87
  -13    1    1     -4.11      6.83
   13    1    0      6.25     -0.54
   13    1    1    -10.52     -2.73
   13    1    2      1.40      3.41
   13    1    3     -3.91      3.99
   13    1    4     -3.42      0.67
   13    1    5      0.06     -2.23
   13    1    6     -2.42      1.48
   13    1    7     -2.46     -1.13
   13    1    8      3.65      0.58
   13    1    9      0.53     -1.21
   13   11    3    -10.07      1.73
   13   11    4      9.59      1.93
   13   13    6      0.06     -8.69
   13   17    6     -5.96      1.85
  -14   20    4      5.15     -6.89
  -14   20    3      0.88     -0.63
  -14   20    2     -3.00      1.87
  -14   20    1     -1.70     -0.14
   14   20    0      4.64     -2.93
   14   20    1     -1.80     -5.48
   14   20    2      0.73     -0.33
  -14   18    6     -0.33      4.05
  -14   18    5     -7.26      2.93
  -14   18    4     -3.36     -1.83
  -14   18    3      1.21     -0.42
  -14   18    2     -3.54     -3.32
  -14   18    1     -3.56     -2.36
   14   18    0      4.21     -0.40
   14   18    1      6.67      4.34
   14   18    2      0.67      1.06
   14   18    3     -4.81      4.56
   14   18    4     -0.67     -5.30
  -14   16    7      8.25     -5.90
  -14   16    6      1.80      3.60
  -14   16    5      1.17      2.50
  -14   16    4     -1.50     -7.07
  -14   16    3     -0.50     -2.94
  -14   16    2      2.31     -1.62
  -14   16    1     -1.19      1.82
   14   16    0     -3.01      1.95
   14   16    1     -0.56     -3.91
   14   16    2     -0.55      3.69
   14   16    3      2.78     -2.25
   14   16    4      0.68     -5.63
  -14   14    8      4.76      2.01
  -14   14    7      5.37     -2.87
  -14   14    6     13.86      2.07
  -14   14    5      3.45      0.78
  -14   14    4      3.95     -1.61
  -14   14    3      1.88      2.48
  -14   14    2     -2.17      5.65
  -14   14    1     -1.32      1.52
   14   14    0     10.23     -1.94
   14   14    1      4.93     -0.73
   14   14    2     -5.58     -0.02
   14   14    3    -10.38      1.03
   14   14    5     -8.90     -0.59
  -14   12    9     -1.67      1.83
  -14   12    8      2.66      3.07
  -14   12    7     -1.49     -0.39
  -14   12    6      2.17     -6.43
  -14   12    5      3.72      4.51
  -14   12    4     -1.99      2.14
  -14   12    3     -9.42     -1.52
  -14   12    2     -2.47     -2.65
  -14   12    1      1.74     -2.47
   14   12    0      8.01      2.75
   14   12    1     -1.22     -0.27
   14   12    2      3.33     -0.75
   14   12    3     -5.88      8.19
   14   12    6     -1.53     11.89
   14   12    7     12.02     -0.27
  -14   10    9     -1.84     -0.24
  -14   10    8      1.73      0.10
  -14   10    7      9.64      1.85
  -14   10    6      0.94      1.93
  -14   10    5     -1.71      4.09
  -14   10    4     -2.29     -4.26
  -14   10    3      1.47      3.11
  -14   10    2      5.16      0.23
  -14   10    1     -6.42      5.41
   14   10    0     -3.78      2.94
   14   10    1     11.90    -10.77
   14   10    2     -2.53      4.90
   14   10    4     -3.23     -1.99
   14   10    5      3.50     -0.97
   14   10    6     -0.07    -10.30
   14   10    7      4.27     -1.98
  -14    8   10    -10.09     -5.46
  -14    8    9    -11.33      2.29
  -14    8    8      6.64      1.38
  -14    8    7      2.62     -4.32
  -14    8    6      0.05      3.20
  -14    8    5     -9.25      3.46
  -14    8    4      4.69     -8.36
  -14    8    3      3.95      4.75
  -14    8    2     -3.45      1.00
  -14    8    1      7.33      1.05
   14    8    1     -9.88      2.57
   14    8    2     -4.51      1.75
   14    8    3     -0.11      2.89
   14    8    4      1.45      2.20
   14    8    5      5.06      5.45
   14    8    6      0.66      8.15
   14    8    7     -4.40      8.05
   14    8    8     -0.24      6.17
  -14    6   10     -3.19     -4.06
  -14    6    9     -2.98     -0.44
  -14    6    8      9.08     -5.03
  -14    6    7      0.25     -1.76
  -14    6    6     -3.42     -2.67
  -14    6    5      2.44      0.45
  -14    6    4      6.03      1.41
  -14    6    3     -0.93      2.31
  -14    6    2     -1.89     -3.98
  -14    6    1     -7.21     -0.44
   14    6    0      0.33     -3.38
   14    6    1     -2.11     -3.04
   14    6    2      3.41     -0.43
   14    6    3     -2.53      8.25
   14    6    4     -1.63     -0.30
   14    6    5      3.08     -3.80
   14    6    6     -2.93      2.78
   14    6    7     -1.32      1.45
   14    6    8     -1.50     -0.05
  -14    4   10     -8.19     -0.29
  -14    4    9     -2.53      0.34
  -14    4    8     -1.05      0.49
  -14    4    7      5.07     -0.21
  -14    4    6      3.95     -5.21
  -14    4    5     -4.50     -2.73
  -14    4    4     -4.56      2.77
  -14    4    3      3.25     -4.89
  -14    4    2      0.23      3.33
   14    4    0      2.90     -6.27
   14    4    1      2.56      5.82
   14    4    2      1.86     -0.60
   14    4    3     -8.44      2.20
   14    4    4     -0.42     -0.17
   14    4    5      2.32     -1.70
   14    4    6     -3.56     -6.60
   14    4    7     -7.23     -5.57
   14    4    8     -0.44     -4.97
  -14    2   10     -2.88     -7.98
  -14    2    9      1.67      1.85
  -14    2    8      6.16     -0.72
  -14    2    7     -0.61     -0.91
  -14    2    6      0.52      1.28
  -14    2    5      1.95     -1.94
  -14    2    4      2.24     -2.59
  -14    2    3      0.69     -3.19
  -14    2    2      5.60      3.21
  -14    2    1     -6.31      3.36
   14    2    1     -1.28      1.31
   14    2    2     10.31      0.49
   14    2    3      4.52      2.49
   14    2    4     -2.06     -2.11
   14    2    5     -2.17     -2.43
   14    2    6      2.78      2.11
   14    2    7      2.26      2.49
   14    2    8      5.09     -3.40
  -14    0   10      0.42     -7.43
  -14    0    9    -13.55      6.77
  -14    0    8      4.40      3.20
  -14    0    7      4.51      3.54
  -14    0    6     -1.33      2.69
  -14    0    5     -1.85     -1.55
  -14    0    4     -0.93      1.01
  -14    0    3     -0.83      3.81
  -14    0    2      0.77     -1.94
  -14    0    1     -1.70      0.35
   14    0    0      5.34     -1.34
   14    0    1     -3.19     -4.21
   14    0    2      2.97     -5.07
   14    0    3      0.06      0.50
   14    0    4     -4.96      5.83
   14    0    5      6.64      3.10
   14    0    6     -2.36      2.51
   14    0    7     -1.09     -2.52
   14    0    8      4.45      4.52
   14    2    0     -5.50     -7.36
  -14    4    1    -23.08     12.87
   14    8    0    -14.99      1.38
   14   10    3     -7.18      6.77
   14   12    4     -3.24     -6.70
   14   12    5      3.51      3.24
   14   14    4     -7.75     -2.42
   14   14    6      3.55     10.27
   14   16    5      4.25     -5.13
  -15   19    3      3.48     -1.01
  -15   19    2      6.90     -0.81
  -15   19    1      1.42     -6.53
   15   19    0     -0.05     -2.13
  -15   17    5     -2.53      0.58
  -15   17    4      1.02     -0.49
  -15   17    3      2.77      2.44
  -15   17    2     -5.77      6.05
  -15   17    1     -4.87      3.25
   15   17    0      8.89     -1.86
   15   17    1     -1.48      7.31
   15   17    2     -5.43     -0.93
   15   17    3      3.43     -4.15
  -15   15    6      0.87     -4.97
  -15   15    5     -7.94     -1.81
  -15   15    4     -3.35      3.18
  -15   15    3      1.85      2.10
  -15   15    2      2.78     -7.93
  -15   15    1     -3.80    -10.64
   15   15    0      0.74      4.45
   15   15    1      4.57     -2.14
   15   15    2      2.45     -1.91
   15   15    4     -9.42     -3.47
  -15   13    7      1.08     -1.96
  -15   13    6     -4.53      0.12
  -15   13    5     -1.38      6.61
  -15   13    4      3.90      0.65
  -15   13    3      0.45      2.01
  -15   13    2     -0.36      5.38
  -15   13    1     -7.22      7.20
   15   13    0      0.76      6.35
   15   13    1      3.58      0.06
   15   13    2     -1.77      5.09
   15   13    4     -4.67      4.25
  -15   11    8      1.22      5.68
  -15   11    7      4.96     -5.18
  -15   11    6      5.52      4.01
  -15   11    5      0.18     -1.28
  -15   11    4      9.01      1.21
  -15   11    3      1.94      6.70
  -15   11    2     -3.27     -4.74
  -15   11    1     -0.92      4.35
   15   11    0     -3.27     -2.22
   15   11    1      2.15     -7.21
   15   11    2     -2.76     -2.24
   15   11    4    -11.13     -2.82
   15   11    6      4.43      1.11
  -15    9    9     14.62      2.30
  -15    9    8      9.09      5.00
  -15    9    7     -9.53     -6.59
  -15    9    6     -1.66    -10.18
  -15    9    5      0.87      2.13
  -15    9    4      2.56      7.71
  -15    9    3     -2.16     -1.55
  -15    9    2      1.08     -9.66
  -15    9    1     -5.82     -4.74
   15    9    0     -0.79     -2.87
   15    9    1     -0.16      4.44
   15    9    2     -1.07     -3.61
   15    9    3      1.36      4.52
   15    9    5      0.91     -2.17
   15    9    6      2.03     -0.46
  -15    7    9     -0.43     -0.75
  -15    7    8      7.56      1.26
  -15    7    7      9.31      5.57
  -15    7    6      5.42     -2.47
  -15    7    5     -2.40     -0.68
  -15    7    4     -5.47     -6.02
  -15    7    3     -2.15     -3.11
  -15    7    2      3.38      5.45
  -15    7    1     -5.41      3.05
   15    7    2      0.09     -2.83
   15    7    3      2.96      0.72
   15    7    4      1.17     -0.94
   15    7    5     -3.52     -0.56
   15    7    6     -6.13    -13.61
   15    7    7      6.84     -8.79
  -15    5    9     -4.23      3.25
  -15    5    8      1.30      5.18
  -15    5    7     -1.47     -5.97
  -15    5    6      0.07     -5.23
  -15    5    5     -3.92     -9.53
  -15    5    4     -1.19     -6.06
  -15    5    3     -5.17     -1.77
  -15    5    2      2.61     -5.70
  -15    5    1      5.60      7.46
   15    5    0    -11.05      2.65
   15    5    2     -7.22     -0.03
   15    5    3      4.40     -1.00
   15    5    4      1.96      3.95
   15    5    5     -0.30      0.29
   15    5    6      0.48      2.74
   15    5    7     -1.30     10.80
  -15    3    9     -0.61     -6.36
  -15    3    8      7.89      1.90
  -15    3    7      2.82     -1.10
  -15    3    6      0.02      1.10
  -15    3    5      0.36      3.87
  -15    3    4      3.98      5.73
  -15    3    3     -8.90      5.68
  -15    3    2     -3.04      0.64
  -15    3    1      1.84     -3.40
   15    3    2     -2.57     -3.86
   15    3    3      0.02     -7.73
   15    3    4      0.74     -3.02
   15    3    5      2.55     -2.19
   15    3    6     -3.11      9.31
   15    3    7     -5.15      7.89
  -15    1   10     -2.32     -5.80
  -15    1    9     -0.51     -0.71
  -15    1    8     -1.16     -1.33
  -15    1    7     -1.75      2.37
  -15    1    6      2.36      0.82
  -15    1    5      5.01      0.64
  -15    1    4     -1.55      1.81
  -15    1    3      3.76     -3.32
  -15    1    2      4.06      7.34
   15    1    1      0.25      4.24
   15    1    2      3.10     -3.78
   15    1    3      0.94      3.74
   15    1    4     -3.76     -1.74
   15    1    5     -4.16      1.10
   15    1    6      0.52      3.85
   15    1    7     -2.26      0.30
   15    1    0     -4.86     -6.16
   15    3    0      6.00     -2.32
   15    3    1     -2.24      1.21
   15    5    1    -14.99      6.12
   15    7    0      9.93     -4.91
   15    7    1      7.54     -1.63
   15    9    4     -5.29      2.70
   15   11    3    -13.73     -2.16
   15   11    5     -2.71      0.20
   15   13    3    -10.09      3.56
   15   13    5      2.52     -0.55
   15   15    3      2.73     12.88
  -16   16    3      4.97      6.79
  -16   16    2      2.44      2.52
  -16   16    1     -0.33      2.25
   16   16    0      1.21      1.55
   16   16    1     -0.46     -5.03
  -16   14    5     -0.11     -0.44
  -16   14    4      6.70      2.71
  -16   14    3      3.56      2.97
  -16   14    2     -2.87     -2.44
  -16   14    1     -2.57     -0.29
   16   14    0      3.26     -1.83
   16   14    1     -0.43      1.74
   16   14    2      1.95     -0.46
   16   14    3      5.91      2.06
  -16   12    6     -1.32     -2.60
  -16   12    5      0.59     -2.37
  -16   12    4      3.16      7.35
  -16   12    3     -1.82      4.70
  -16   12    2     -2.94     -7.91
  -16   12    1     -4.39    -10.55
   16   12    0     -0.81     -2.99
   16   12    1     -2.78     -3.65
   16   12    2     -1.67     -0.88
   16   12    3     13.61      4.05
   16   12    4     -6.14      8.77
  -16   10    7      0.78      5.05
  -16   10    6      2.77     -4.00
  -16   10    5     -4.29     -6.81
  -16   10    4      0.66      0.16
  -16   10    3     -2.34      3.24
  -16   10    2     -0.35      1.63
  -16   10    1     -1.07      2.92
   16   10    0      2.13     -1.17
   16   10    1     -0.33      2.68
   16   10    2      1.46      4.98
   16   10    3      3.16      4.34
  -16    8    8     -7.76      5.97
  -16    8    7     -1.85     -3.09
  -16    8    6     -1.16     -5.62
  -16    8    5     -1.70    -10.86
  -16    8    4     -6.08      4.40
  -16    8    3    -14.12      4.74
  -16    8    2      3.12     -7.68
  -16    8    1     -5.83     10.26
   16    8    0      2.22     -2.55
   16    8    1      2.08     -0.51
   16    8    2     -2.94      1.18
   16    8    3     -3.86     -0.16
   16    8    4      0.46      2.60
   16    8    5     -0.99      0.44
  -16    6    8     -3.62      1.34
  -16    6    7     -5.91     -6.41
  -16    6    6      0.26     -2.58
  -16    6    5      0.08      0.78
  -16    6    4      2.94      3.77
  -16    6    3     -2.10     -5.99
  -16    6    2     -0.36     -0.91
  -16    6    1     -2.17      2.23
   16    6    0     -5.52      1.68
   16    6    2     -5.99      1.77
   16    6    3      2.86     -1.80
   16    6    4      3.98      0.35
   16    6    5      4.64      0.52
   16    6    6      2.93      5.60
  -16    4    8     -0.76      0.67
  -16    4    7     -2.96      4.99
  -16    4    6      1.83      1.17
  -16    4    5     -0.17      1.29
  -16    4    4     -0.64     -2.50
  -16    4    3      5.82     -1.26
  -16    4    2      0.95      8.62
  -16    4    1     -0.87     -4.42
   16    4    2     -2.79     -1.74
   16    4    3      6.80     -0.71
   16    4    4     -0.84      0.42
   16    4    5      0.48      4.39
   16    4    6     -0.99     -3.51
  -16    2    8      1.22      1.98
  -16    2    7      1.56     -1.12
  -16    2    6     -0.80     -3.24
  -16    2    5      0.42     -0.99
  -16    2    4      5.25      3.22
  -16    2    3     11.23      0.11
   16    2    1     -7.39      3.20
   16    2    2      1.26     -3.93
   16    2    3      0.89      3.31
   16    2    4     -3.50      0.79
   16    2    5     -1.59      0.04
   16    2    6     -1.78      7.43
  -16    0    9      4.48     -3.16
  -16    0    8     -1.97      7.31
  -16    0    7     -0.66     -1.79
  -16    0    6     -0.51      3.37
  -16    0    5      2.15      3.25
  -16    0    4      6.58      3.57
  -16    0    3     -3.96      3.14
  -16    0    2    -12.29      6.27
   16    0    0      8.19      1.28
   16    0    1      4.99      0.37
   16    0    2     -3.66      5.10
   16    0    3     -4.08     -2.32
   16    0    4     -1.52     -4.46
   16    0    5     -6.46     -3.62
   16    0    6      2.12      3.57
   16    2    0    -15.67      3.98
   16    4    0     -6.47     -6.98
   16    4    1      2.10      3.92
   16    6    1     -6.38      8.72
   16   10    4      6.45     -0.04
   16   10    5     12.22     -3.97
  -17   13    3     -0.65     -0.46
  -17   13    2      3.09     -2.40
  -17   13    1     -3.18      1.37
   17   13    0     -0.21      1.24
  -17   11    5     -1.71     -0.18
  -17   11    4     -6.85     -0.86
  -17   11    3    -10.70     -3.25
  -17   11    2     -1.10     -0.86
  -17   11    1     -3.30     -1.40
   17   11    0      9.45      0.24
   17   11    1     -0.56      0.92
   17   11    2     -5.15     -1.76
  -17    9    6      0.37      3.55
  -17    9    5     -0.15      3.25
  -17    9    4      0.31      1.68
  -17    9    3     -3.15     -3.27
  -17    9    2     -0.84     -0.42
  -17    9    1      1.75      1.06
   17    9    0     -1.45     -2.84
   17    9    1     -4.19      0.41
   17    9    2     -2.27      8.03
   17    9    3      2.65      5.08
  -17    7    6      2.12      4.91
  -17    7    5     -2.48     -1.74
  -17    7    4      0.93      0.72
  -17    7    3      0.03     -2.14
  -17    7    2     -0.54     -3.21
   17    7    0     -5.02     -0.90
   17    7    1      0.53     -3.09
   17    7    2     -0.70     -1.53
   17    7    3      1.18     -2.77
   17    7    4      0.19      2.69
  -17    5    7     -0.31      1.42
  -17    5    6     -1.94      0.51
  -17    5    5      6.07      1.40
  -17    5    4      2.22      3.76
  -17    5    3     -4.82     -2.07
  -17    5    1      2.00      3.66
   17    5    0    -10.14      4.30
   17    5    2     -2.45      0.60
   17    5    3     -3.54      7.61
   17    5    4     -3.87      4.02
  -17    3    7     -3.40      2.89
  -17    3    6     -1.91      3.54
  -17    3    5      0.68      2.25
  -17    3    4     -0.85      0.57
  -17    3    3      0.93     -1.12
  -17    3    2     -4.76      7.47
   17    3    2     -2.51      2.25
   17    3    3      0.14     -5.05
   17    3    4     -1.13      0.88
  -17    1    7     -0.81      1.32
  -17    1    6      1.88     -1.46
  -17    1    5     -3.39     -4.63
  -17    1    4     -5.44     -6.24
  -17    1    3      8.12      0.08
   17    1    1     10.26      4.86
   17    1    3     -5.75     -2.54
   17    1    4      4.07      3.90
   17    1    0    -10.63      1.34
   17    1    2     -3.06      1.78
   17    3    0     -0.11     -4.59
   17    3    1     -0.83      0.10
   17    5    1    -10.50      1.48
  -18    8    3     -3.84     -9.60
  -18    8    2     -3.16      0.19
  -18    8    1      0.21     -3.78
   18    8    0     -0.35      4.03
  -18    6    4     -2.80      5.66
  -18    6    3     -1.52     -1.48
  -18    6    2     -0.87     -0.31
  -18    6    1      0.40      1.35
   18    6    1     -0.16     -1.86
  -18    4    5      2.92     -3.73
  -18    4    4     -0.24     -3.76
  -18    4    3     -4.50      0.95
   18    4    2      6.68      1.05
  -18    2    5      1.56      0.78
  -18    2    4    -11.45     -4.67
  -18    2    2      4.45      4.63
   18    2    2    -15.03      1.22
  -18    0    5      2.35      1.56
  -18    0    3      7.38      1.56
  -18    4    1      2.78     -5.45
   18    4    1     15.84     -3.31
   18    6    0      4.43     -6.44
    2    0    0   -196.34   -159.10
   18    0    0      7.28    -10.41
    1    1    0      7.41      4.11
    0    2    0     16.15      0.06
    2    2    0    -38.93     33.89
   18    2    0     -2.53      2.25
    1    3    0    275.74    -91.84
    0    4    0     67.72      0.21
   18    4    0      2.33      8.02
   18   10    0     -1.30      0.28
   18   12    0      4.28     -0.61
   18   14    0     -1.34     -1.36
   17   15    0      8.06     -1.33
   18   16    0      4.60      0.15
   17   17    0     -2.81      0.55
   16   18    0      1.65      2.87
   18   18    0      0.97     -3.04
   17   19    0      4.69      1.37
   16   20    0      1.45     -1.94
   15   21    0      0.59      3.97
   17   21    0     -1.38     -0.28
   14   22    0      4.34      2.47
   16   22    0     -1.19     -2.10
   15   23    0      1.74     -2.20
   14   24    0      0.41     -3.93
   16   24    0     -0.29      1.89
   13   25    0      1.94      3.62
   15   25    0     -1.55      0.40
   12   26    0     -2.35     -4.37
   14   26    0     -1.53     -0.65
   11   27    0      1.48      5.29
   13   27    0      3.44     -2.33
   10   28    0      1.04     -1.89
   12   28    0      2.41      1.13
    9   29    0      2.81      0.67
   11   29    0      3.36     -3.23
   13   29    0     -5.09     -0.14
    8   30    0     -2.70      2.52
   10   30    0     -3.26      1.24
   12   30    0      2.90      0.66
    7   31    0     -1.17     -4.79
    9   31    0      0.71      0.09
   11   31    0      3.76      0.10
    4   32    0      6.63     -1.45
    6   32    0     -6.25     -3.71
    8   32    0     -0.63      4.21
   10   32    0      3.35      0.06
  -18    0    1     -3.16      7.53
  -16    0    1     -7.01     -7.22
   -2    0    1    -60.97   -103.17
    0    0    1    227.39     18.51
   18    0    1     10.39      4.33
  -17    1    1      3.45     -0.03
  -15    1    1    -11.21     -7.67
   -1    1    1      0.49     -4.36
    1    1    1     -2.02    -28.55
  -18    2    1      6.22      4.63
  -16    2    1     -1.63     -1.29
    0    2    1      5.91    -22.98
   18    2    1     -0.44      1.95
  -17    3    1     -6.53      4.48
   -1    3    1     37.58    -80.64
  -17    7    1      2.70     -1.54
   18    8    1     -5.32      2.44
  -18   10    1     -3.97      1.03
   18   10    1     -2.53      0.15
  -18   12    1      2.52      0.28
   18   12    1      0.06      0.89
   17   13    1     -3.73     -0.53
  -18   14    1     -0.61     -0.48
   18   14    1      2.20     -1.11
  -17   15    1     -1.87     -1.86
   17   15    1     -1.14     -4.51
  -18   16    1      1.32      1.42
   18   16    1     -3.69     -0.18
  -17   17    1     -1.99     -2.10
   17   17    1      3.17      1.76
  -18   18    1      0.45      0.52
  -16   18    1     -5.95     -4.68
   16   18    1      2.77    -10.53
   18   18    1     -1.07      3.51
  -17   19    1      3.56      4.07
   15   19    1      1.09     -6.33
   17   19    1     -0.43      0.13
  -18   20    1     -0.83      0.11
  -16   20    1      2.04     -0.08
   16   20    1     -1.35      2.38
  -17   21    1     -3.22     -0.91
  -15   21    1     -1.88     -0.17
   15   21    1      2.95     -0.02
   17   21    1      0.36     -0.97
  -16   22    1      2.71     -1.23
  -14   22    1     -0.69     -2.93
   14   22    1      0.08     -1.28
   16   22    1      2.19     -0.94
  -15   23    1      2.41     -2.85
   13   23    1     -1.06     -1.97
   15   23    1     -3.35     -5.84
  -16   24    1      2.59      0.13
  -14   24    1      1.32      3.51
   14   24    1     -3.68      2.35
   16   24    1     -1.14     -0.90
  -15   25    1     -1.69     -1.42
  -13   25    1     -2.83      0.48
   13   25    1      3.33      1.71
   15   25    1     -1.13     -0.13
  -14   26    1     -1.84      0.45
  -12   26    1     -0.77      5.27
   12   26    1     -2.52      8.60
   14   26    1      1.14     -4.91
  -13   27    1      2.05     -3.90
  -11   27    1     -1.65      1.71
   11   27    1      3.88      0.26
   13   27    1     -3.84     -4.63
  -14   28    1     -0.37     -0.68
  -12   28    1      4.59     -1.66
  -10   28    1     -2.87     -7.98
   10   28    1      5.54     -0.84
   12   28    1      0.26     -3.11
  -13   29    1     -0.62      2.91
  -11   29    1      0.56      3.01
   -9   29    1     -1.22     -1.37
    9   29    1      4.24     -2.60
   11   29    1     -0.55      6.00
   13   29    1      1.67      0.89
  -12   30    1     -1.21      1.48
  -10   30    1     -0.78      1.33
   -8   30    1     -1.66     -1.36
    8   30    1      0.77      9.00
   10   30    1      3.02     -1.03
   12   30    1      1.34     -0.56
  -11   31    1     -1.65     -2.36
   -9   31    1      1.70     -3.65
   -7   31    1     -0.28     -2.42
    7   31    1     -2.13     -7.60
    9   31    1     -0.13      0.30
   11   31    1      5.70     -0.87
  -10   32    1      0.71     -1.90
   -8   32    1      0.09     -1.07
   -6   32    1     -0.98     -2.53
   -4   32    1     -0.17      0.17
    4   32    1     -4.73      1.15
    6   32    1     -1.77      2.36
    8   32    1      4.27     -0.86
   10   32    1      1.71      1.02
  -18    0    2     -2.80      4.60
   18    0    2      6.73      3.23
  -17    1    2      5.46      4.55
  -16    2    2      7.86      5.24
  -18    4    2     -4.49     -4.18
  -17    5    2     10.30      7.37
   18    6    2     -1.27      4.49
   18    8    2     -1.40     -1.33
  -18   10    2      4.36     -4.41
   18   10    2      0.37     -1.63
  -18   12    2     -2.69      2.63
   18   12    2      0.82      2.20
   17   13    2      0.94     -0.84
  -18   14    2      0.94     -2.36
   18   14    2     -1.39     -0.76
  -17   15    2     -5.08      2.25
   17   15    2     -2.44     -1.78
  -18   16    2     -0.02      0.45
   16   16    2      1.24     -5.48
   18   16    2     -2.84      1.75
  -17   17    2     -0.45     -3.08
   17   17    2      1.29     -0.87
  -18   18    2      1.21      0.40
  -16   18    2     -2.54     -3.62
   16   18    2     -0.61     -4.29
   18   18    2      0.10      3.28
  -17   19    2      0.04      0.30
   15   19    2      1.23     -0.49
   17   19    2     -4.63     -0.73
  -18   20    2     -0.06      0.06
  -16   20    2     -0.22     -0.40
   16   20    2     -1.03     -1.32
  -17   21    2      0.27     -0.35
  -15   21    2     -1.38      1.09
   15   21    2     -4.93     -4.60
   17   21    2      2.75      1.12
  -16   22    2      2.49     -0.52
  -14   22    2     -0.30      2.10
   14   22    2      0.98     -0.52
   16   22    2     -0.29      1.05
  -15   23    2     -0.22     -2.40
   13   23    2     -1.26      1.25
   15   23    2     -1.35     -3.81
  -16   24    2      0.52      0.04
  -14   24    2      0.19     -0.92
   14   24    2     -1.89     -4.30
  -15   25    2     -1.33      2.37
  -13   25    2      0.40      1.47
   13   25    2     -1.62     -0.94
   15   25    2      0.85     -0.42
  -14   26    2      1.97     -2.33
  -12   26    2      0.53     -2.51
   12   26    2     -3.99      6.51
   14   26    2     -0.89     -2.41
  -13   27    2      0.67     -3.85
  -11   27    2     -1.13     -1.63
   11   27    2      0.38      3.39
   13   27    2      2.18      0.31
  -12   28    2     -1.58      1.80
  -10   28    2     -1.71     -4.60
   10   28    2      2.20      0.69
   12   28    2      0.30     -3.22
  -13   29    2      6.12     -1.49
  -11   29    2     -4.37     -1.38
   -9   29    2     -4.82     -0.18
    9   29    2     -0.58     -3.67
   11   29    2     -1.35      4.25
  -12   30    2      0.25     -0.80
  -10   30    2     -1.93     -0.32
   -8   30    2     -2.08      0.80
    8   30    2      1.32     -0.76
   10   30    2     -0.09     -0.85
   12   30    2      1.18      2.84
  -11   31    2     -3.31      2.18
   -9   31    2      4.28     -5.68
   -7   31    2      2.52      3.97
    5   31    2      1.83     -1.14
    7   31    2     -5.39      0.89
    9   31    2      0.16      2.64
   11   31    2      3.13     -0.47
  -10   32    2     -3.07     -2.11
   -8   32    2      3.56      0.53
   -6   32    2      1.03     -0.90
   -4   32    2     -5.26     -2.37
    2   32    2     -4.49     -0.44
    4   32    2     -1.90      1.65
    6   32    2      1.98      1.27
    8   32    2     -0.42     -5.27
   10   32    2     -0.26      1.80
   18    0    3      1.86     -6.22
  -18    2    3     -7.14     -1.15
   18    2    3    -11.51     -1.71
   18    4    3     -6.23     -0.94
   18    6    3      2.80     -0.96
   18    8    3      2.25     -2.50
  -18   10    3      0.00     -5.77
   18   10    3      2.80     -5.47
   17   11    3      7.77      1.59
  -18   12    3     -3.89     -1.47
   18   12    3     -3.88     -0.55
   17   13    3     10.39      1.77
  -18   14    3     -2.35     -2.68
   18   14    3     -0.66     -1.28
  -17   15    3     -2.04     -0.23
   17   15    3      5.79     -2.48
  -18   16    3     -5.10     -3.25
   16   16    3     -0.01      6.55
   18   16    3      3.47     -1.45
  -17   17    3      2.31     -3.35
   17   17    3      1.06      2.52
  -18   18    3      0.60     -1.80
  -16   18    3      0.99     -0.68
   16   18    3      3.69      3.93
  -17   19    3      1.45      1.83
   15   19    3     -2.39      2.36
   17   19    3      2.04      4.13
  -16   20    3     -2.45     -1.11
   14   20    3     -0.67      6.01
   16   20    3      4.07      1.40
  -17   21    3     -2.93     -0.72
  -15   21    3      2.71     -0.09
   15   21    3      0.97     -2.62
  -16   22    3      3.67     -0.13
  -14   22    3      0.83     -1.01
   14   22    3     -0.72     -3.44
   16   22    3     -5.66      5.78
  -15   23    3     -3.58      0.32
   13   23    3      0.33     -1.03
   15   23    3     -0.88      3.72
  -16   24    3     -4.08      0.00
  -14   24    3      0.63     -3.60
   12   24    3     -0.94      4.81
   14   24    3      2.21      0.62
  -15   25    3      1.92     -1.99
  -13   25    3     -0.13     -3.68
   11   25    3     -0.98     -1.01
   13   25    3     -1.96     -1.46
  -14   26    3      2.25     -2.77
  -12   26    3      1.95     -3.41
   12   26    3      2.91     -0.79
   14   26    3     -2.48     -1.83
  -13   27    3     -3.09     -1.16
  -11   27    3      1.20      5.16
   11   27    3      2.60      4.41
   13   27    3      0.86      1.50
  -12   28    3     -4.26     -0.04
  -10   28    3     -5.02      0.87
   10   28    3     -7.01      0.28
   12   28    3     -0.95      3.29
  -13   29    3      3.64     -1.98
  -11   29    3      0.09     -1.10
   -9   29    3     -4.86     -0.49
    9   29    3      1.93      1.05
   11   29    3      4.60     -2.44
  -12   30    3     -1.07      1.62
  -10   30    3      2.29      0.74
   -8   30    3      0.00     -8.27
    6   30    3      1.58      5.59
    8   30    3     -3.40     -8.59
   10   30    3      0.77      0.83
  -11   31    3     -3.08     -0.06
   -9   31    3      2.63      1.58
   -7   31    3      2.44      3.28
   -5   31    3      5.76     -1.96
    5   31    3      2.40      2.57
    7   31    3     -0.74     -0.78
    9   31    3     -2.09     -0.65
  -10   32    3     -3.44     -2.45
   -8   32    3      2.24      3.24
   -6   32    3      0.30      3.12
   -4   32    3     -1.14      1.31
   -2   32    3      0.01      2.04
    0   32    3      1.93     -2.05
    2   32    3     -2.41      0.89
    4   32    3      3.16     -2.58
    6   32    3     -1.72      0.00
    8   32    3      0.04      2.53
  -18    0    4      3.03      0.11
   18    0    4     -0.09      1.22
   18    2    4      2.28      2.58
   18    4    4     -0.72      6.63
   18    6    4     -1.20      0.82
  -18    8    4      0.54      4.03
   18    8    4     -3.09     -0.97
   17    9    4     -2.08      2.88
  -18   10    4     -3.55      3.04
   18   10    4      1.87      0.09
   17   11    4      4.79      0.31
  -18   12    4     -2.84     -1.69
   18   12    4     -1.73     -2.29
  -17   13    4     -3.29     -2.48
   17   13    4      8.54     -0.26
  -18   14    4     -4.36      0.02
   16   14    4      6.03      0.90
   18   14    4     -3.08     -3.30
  -17   15    4      2.09     -2.26
   17   15    4      0.22      4.74
  -18   16    4     -1.12     -5.27
  -16   16    4      0.52      6.04
   16   16    4     -0.44      2.94
   18   16    4      0.25     -1.35
  -17   17    4      0.96      0.63
   15   17    4      4.25     -5.01
   17   17    4      1.20      0.94
  -18   18    4     -1.23      2.05
  -16   18    4      2.09      0.96
   16   18    4     -2.97      1.48
  -17   19    4      0.55     -0.80
  -15   19    4     -3.34     -2.76
   15   19    4      4.82      2.05
   17   19    4      0.92     -1.46
  -16   20    4     -1.47      3.45
   14   20    4      3.23      0.21
   16   20    4      0.10     -0.28
  -17   21    4      0.08      1.42
  -15   21    4      0.36     -1.14
   13   21    4     -5.13      8.94
   15   21    4      1.02     -5.08
  -16   22    4     -2.02     -2.02
  -14   22    4      0.56     -2.90
   14   22    4     -2.97     -2.51
  -15   23    4      2.77     -3.27
  -13   23    4     -0.91     -2.79
   13   23    4      2.65      3.09
   15   23    4     -0.80      2.10
  -14   24    4      0.06      1.13
   12   24    4     -1.01      4.34
   14   24    4      2.79      1.33
  -15   25    4      1.20     -2.16
  -13   25    4     -1.91     -5.46
   11   25    4      1.38      2.81
   13   25    4     -0.20     -0.49
  -14   26    4      0.14     -2.34
  -12   26    4     -0.68      0.09
   10   26    4      3.82     -1.70
   12   26    4      4.67     -1.83
  -13   27    4      1.33      1.73
  -11   27    4      2.58     -2.09
    9   27    4      0.81     -0.30
   11   27    4      1.91      1.25
   13   27    4      0.19     -0.45
  -12   28    4     -0.09     -2.53
  -10   28    4     -1.48     -0.51
    8   28    4      5.24      3.34
   10   28    4     -1.07      1.02
   12   28    4     -2.22     -0.08
  -11   29    4      1.15      0.85
   -9   29    4      7.97     -3.33
    7   29    4      5.47      2.17
    9   29    4     -2.30      3.07
   11   29    4      4.74      1.26
  -10   30    4     -2.31     -2.84
   -8   30    4     -1.20     -0.09
   -6   30    4     -2.63     -1.67
    6   30    4      4.09     -1.17
    8   30    4     -4.64      3.87
   10   30    4      0.88     -0.63
  -11   31    4     -1.55     -0.41
   -9   31    4      3.47      5.16
   -7   31    4     -0.13     -4.22
   -5   31    4      8.55     -0.27
   -3   31    4     -1.20      4.34
    3   31    4      0.70     -4.05
    5   31    4     -1.46      4.95
    7   31    4      0.82     -5.35
    9   31    4      0.88      1.42
  -10   32    4     -0.55     -1.23
   -8   32    4     -1.24      3.22
   -6   32    4     -1.71      6.83
   -4   32    4      6.06      2.85
   -2   32    4     -2.65     -2.91
    0   32    4     -4.59      5.38
    2   32    4      3.65      3.33
    4   32    4      0.41     -4.79
    6   32    4     -0.14     -0.76
    8   32    4      2.18      3.60
   18    0    5     -1.25      6.70
   17    1    5     11.27      5.07
   18    2    5      5.85      1.92
   17    3    5     -5.76      8.97
   18    4    5      6.77      0.78
   17    5    5      2.65     -0.85
  -18    6    5      0.35      6.18
   18    6    5     -5.14      3.40
   17    7    5     10.46     -0.58
  -18    8    5      2.49      5.27
   18    8    5     -1.37      1.45
   17    9    5      0.08     -3.44
  -18   10    5     -0.62      1.64
   18   10    5      0.32     -0.92
   17   11    5     -6.14      1.00
  -18   12    5     -1.20     -0.02
   16   12    5     -5.45     -5.49
   18   12    5      0.55     -1.75
  -17   13    5     -3.93     -6.12
   17   13    5      4.55     -1.02
  -18   14    5     -1.00      0.33
   16   14    5     -0.47     -0.12
   18   14    5      0.84     -2.53
  -17   15    5      5.29     -1.24
   15   15    5      1.73     -7.12
   17   15    5     -6.52     -3.29
  -18   16    5      2.05     -0.65
  -16   16    5     -2.02     -1.19
   16   16    5     -6.87     -2.32
  -17   17    5      0.84      0.92
   15   17    5     -5.06     -2.40
   17   17    5      2.28      0.51
  -18   18    5      2.25      1.35
  -16   18    5     -2.14     -0.85
   14   18    5      1.21      2.38
   16   18    5      1.81     -5.08
  -17   19    5      0.93     -1.72
  -15   19    5     -2.51     -2.59
   15   19    5      1.28     -3.52
  -16   20    5     -1.00      0.15
  -14   20    5      0.54     -1.18
   14   20    5     -1.40     -2.30
   16   20    5     -3.00     -2.27
  -17   21    5      2.91      0.21
  -15   21    5     -4.12      1.58
   13   21    5    -12.52      2.72
   15   21    5      1.62      1.90
  -16   22    5     -1.13     -3.40
  -14   22    5     -2.37     -2.38
   12   22    5     -2.06     -0.89
   14   22    5      3.89     -2.72
  -15   23    5     -0.79     -4.05
  -13   23    5     -5.41     10.02
   13   23    5     -0.53      0.80
  -14   24    5      0.76     -1.78
  -12   24    5     -0.89     -2.51
   12   24    5      1.98     -3.87
   14   24    5     -3.41      0.84
  -15   25    5      0.00     -1.15
  -13   25    5     -1.78     -0.96
  -11   25    5     -0.81      2.96
   11   25    5      2.14     -1.02
   13   25    5      4.65      1.99
  -14   26    5     -3.98      3.70
  -12   26    5      1.62      1.28
  -10   26    5      3.37     -2.97
   10   26    5      1.77      4.50
   12   26    5      2.66     -2.97
  -13   27    5     -3.16     -1.61
  -11   27    5     -0.17      1.98
   -9   27    5     -5.14      1.57
    9   27    5      1.27      2.87
   11   27    5      2.25     -4.11
  -12   28    5      2.45     -2.95
  -10   28    5      5.68      4.46
   -8   28    5      1.17      2.10
    8   28    5      5.29     -1.55
   10   28    5      0.31     -5.09
  -11   29    5      1.48     -2.39
   -9   29    5      4.54     -0.87
   -7   29    5     -7.99     -2.52
    7   29    5     -1.79     -4.04
    9   29    5     -5.34      0.89
   11   29    5      1.12      4.11
  -10   30    5      0.56      1.03
   -8   30    5     -4.33      5.15
   -6   30    5      7.14     -0.06
    4   30    5     -4.42     -0.81
    6   30    5      3.52     -0.57
    8   30    5     -0.54      8.51
   10   30    5     -3.82      0.07
   -9   31    5      4.80      5.30
   -7   31    5     -2.54     -7.48
   -5   31    5     -2.36     -0.94
   -3   31    5      0.58      2.65
   -1   31    5      4.40     -0.36
    1   31    5      1.31      3.39
    3   31    5     -0.95     -5.22
    5   31    5     -3.07      7.98
    7   31    5      4.31     -2.68
    9   31    5      2.69      0.12
   -8   32    5     -0.56      0.44
   -6   32    5     -3.83      3.58
   -4   32    5      3.05     -0.08
   -2   32    5     -0.64     -0.36
    0   32    5      3.00      4.82
    2   32    5     -3.39     -2.28
    4   32    5     -1.57      4.00
    6   32    5      5.32     -1.35
    8   32    5     -2.21     -0.62
  -18    0    6      0.10      0.14
   18    0    6      3.36     -5.05
   -1    1    6      5.20      9.05
   17    1    6      0.74      0.54
  -18    2    6      1.53      3.45
   18    2    6      2.92     -0.13
   17    3    6      4.85     -3.96
  -18    4    6      2.60      2.63
   18    4    6      1.30     -2.01
   17    5    6      6.70      0.97
  -18    6    6      1.26      1.89
   18    6    6      1.46     -5.22
   17    7    6      1.66      1.03
  -18    8    6     -0.91      1.34
   16    8    6      1.61     -4.32
   18    8    6      0.96      1.65
   17    9    6      3.73     -1.29
  -18   10    6      0.58      5.13
   16   10    6     -4.87     -1.07
   18   10    6     -1.33      1.05
  -17   11    6     -1.62      2.86
   17   11    6     -4.45     -0.33
  -18   12    6      1.25      3.69
   16   12    6      7.43     -4.67
  -17   13    6      0.25      2.84
   15   13    6     -0.59     -2.15
   17   13    6     -2.58      1.29
  -18   14    6      1.77      0.25
  -16   14    6     -3.03      3.42
   16   14    6     -2.49     -3.94
  -17   15    6      1.49      6.87
   15   15    6      3.27      6.02
   17   15    6     -0.84     -1.65
  -18   16    6      0.49      2.28
  -16   16    6     -2.10     -1.42
   14   16    6     -1.27     -1.62
   16   16    6     -0.68     -2.72
  -17   17    6     -0.16     -1.11
  -15   17    6      5.63      7.02
   15   17    6      0.43      2.55
  -16   18    6     -0.52      3.52
   14   18    6      1.83      0.68
   16   18    6     -0.97      1.24
  -17   19    6      1.63     -0.58
  -15   19    6     -2.89     -3.83
   13   19    6     -2.84      3.69
   15   19    6      3.05     -1.36
  -16   20    6      2.53      1.48
  -14   20    6      2.90      4.19
   12   20    6     -0.52     -6.20
   14   20    6     -2.83      2.76
  -15   21    6      1.17      1.55
  -13   21    6     -2.95      3.50
   13   21    6      3.26      4.60
   15   21    6      1.40      0.20
  -16   22    6      0.92     -1.75
  -14   22    6     -3.65      1.68
   12   22    6     -6.64      0.78
   14   22    6      5.69      1.85
  -15   23    6     -0.45      1.66
  -13   23    6     -0.11      3.56
   11   23    6     -0.09      1.45
   13   23    6      0.46     -3.26
  -14   24    6      1.10     -2.02
  -12   24    6     -3.30     -0.03
   10   24    6      2.25     -6.29
   12   24    6      0.30     -0.79
  -13   25    6      0.36      4.08
  -11   25    6      6.09     -1.28
    9   25    6      6.05    -11.75
   11   25    6     -2.82     -7.37
   13   25    6     -0.83      1.56
  -12   26    6      0.54     -5.93
  -10   26    6     -5.47      2.60
    8   26    6     -5.72     -9.39
   10   26    6     -1.63      2.95
   12   26    6      1.31     -1.34
  -13   27    6     -2.50     -2.33
  -11   27    6     -0.85      2.88
   -9   27    6     -0.66      2.42
    7   27    6      2.54      3.27
    9   27    6      1.49      2.33
   11   27    6      0.16     -3.93
  -12   28    6      3.37      0.38
  -10   28    6      5.65     -1.20
   -8   28    6      1.12     -6.50
    6   28    6     -6.11      2.64
    8   28    6      1.13     -3.16
   10   28    6      0.46     -7.49
  -11   29    6      0.56     -3.50
   -9   29    6     -6.47      1.01
   -7   29    6      3.02      7.39
   -5   29    6     -0.58     -7.16
    5   29    6      0.80     10.32
    7   29    6     -1.40     -5.13
    9   29    6     -3.57     -1.89
  -10   30    6      0.29      4.67
   -8   30    6     -1.68     -1.13
   -6   30    6      3.75      4.74
   -4   30    6     -4.01     -2.97
   -2   30    6      3.63      1.69
    0   30    6     -0.73      4.06
    2   30    6      2.18     -3.46
    4   30    6      0.60     -2.87
    6   30    6     -1.09      1.20
    8   30    6      0.18      4.31
   -9   31    6      0.02     -0.53
   -7   31    6     -0.05     -4.60
   -5   31    6     -6.33     -0.80
   -3   31    6      0.86     -1.93
   -1   31    6     -2.39      2.86
    1   31    6     -1.09      0.39
    3   31    6      1.07     -3.69
    5   31    6      0.70     -1.32
    7   31    6      0.43      2.38
   -8   32    6     -0.36     -0.26
   -6   32    6      0.17     -0.86
   -4   32    6     -1.47     -6.53
   -2   32    6     -1.04      1.48
    0   32    6      2.10      1.52
    2   32    6      2.49     -2.65
    4   32    6     -1.77      0.42
    6   32    6      2.12      3.31
  -18    0    7     -4.63      3.52
   16    0    7     -1.84      7.87
   18    0    7      2.71     -4.20
   17    1    7     -1.84      0.70
  -18    2    7     -2.36      0.55
   16    2    7      2.52      5.05
   18    2    7     -1.75      0.51
   17    3    7      5.07     -7.33
  -18    4    7      1.01      1.47
   16    4    7     -1.17     -6.42
   18    4    7     -0.27      2.19
   17    5    7      4.84      0.30
  -18    6    7      3.89      0.74
   16    6    7     -4.47      5.22
   18    6    7      5.14     -5.71
  -17    7    7     -0.48      4.27
   17    7    7     -5.59      0.03
  -18    8    7     -1.03      0.93
   16    8    7      3.88     -1.01
   18    8    7      1.68     -1.88
  -17    9    7      2.79     -5.41
   15    9    7      1.10     -1.28
   17    9    7     -3.39      2.53
  -18   10    7      2.34     -0.05
   16   10    7     -6.28     -0.14
  -17   11    7      1.87      0.53
   15   11    7      5.39     -0.98
   17   11    7      2.11     -1.31
  -18   12    7      4.02      0.47
  -16   12    7     -4.92     -6.64
   16   12    7      0.42      0.62
  -17   13    7      1.28      4.49
   15   13    7      2.78     -1.92
   17   13    7     -2.81     -0.39
  -18   14    7     -0.11      1.49
  -16   14    7      4.44     -2.91
   14   14    7      9.80      4.63
   16   14    7     -1.15     -3.56
  -17   15    7     -2.24      1.47
  -15   15    7     -0.35     -4.02
   15   15    7      5.67      0.88
  -16   16    7     -2.57      1.55
   14   16    7      4.15     -3.15
   16   16    7      3.92     -0.73
  -17   17    7      2.23     -3.25
  -15   17    7      5.36     -3.32
   13   17    7      1.85     -2.95
   15   17    7      3.83      0.69
  -16   18    7     -0.24     -0.15
  -14   18    7      4.10     -0.05
   12   18    7      5.66      9.46
   14   18    7      5.89     -2.43
  -15   19    7      0.03     -1.80
   13   19    7     -4.45      4.85
   15   19    7      2.13     -0.66
  -16   20    7      2.34     -1.85
  -14   20    7     -3.98     -3.02
   12   20    7      0.55     -3.38
   14   20    7      1.14      0.47
  -15   21    7      2.86     -3.97
  -13   21    7     -3.00      4.25
   11   21    7     -4.09     -2.57
   13   21    7      4.07      3.69
  -14   22    7      2.16      1.05
  -12   22    7     -2.75      5.51
   10   22    7     -2.74      1.14
   12   22    7     -4.37      4.57
  -15   23    7     -1.66     -0.55
  -13   23    7     -2.63     -0.17
  -11   23    7     -6.97     -3.48
   11   23    7     -2.44      3.52
   13   23    7      1.62     -2.68
  -14   24    7     -4.00     -1.27
  -12   24    7      4.10      0.94
  -10   24    7      1.91     -6.29
   10   24    7      2.80     -1.85
   12   24    7     -2.44     -1.10
  -13   25    7     -0.66      0.77
  -11   25    7      2.04     -1.07
   -9   25    7     -4.70     -9.62
    9   25    7     -6.59     -0.17
   11   25    7     -0.58     -0.71
  -12   26    7     -0.92     -0.70
  -10   26    7      3.24      3.02
   -8   26    7     11.04      4.39
    8   26    7      1.59     -3.86
   10   26    7     -0.66     -1.94
  -11   27    7      3.84     -0.79
   -9   27    7      0.09      2.50
   -7   27    7      3.83     -2.09
    5   27    7      4.33     -6.44
    7   27    7     -0.42      0.77
    9   27    7     -1.72     -2.59
  -10   28    7     -0.71     -5.26
   -8   28    7      1.24     -2.38
   -6   28    7     -2.51      5.01
    4   28    7      1.77      4.24
    6   28    7     -2.73     -4.25
    8   28    7     -8.55     -0.84
   10   28    7      0.92      1.31
   -9   29    7      0.05      2.01
   -7   29    7      3.20     -0.31
   -5   29    7      1.52     -2.60
   -3   29    7     -6.15      0.50
   -1   29    7     -0.68      7.42
    1   29    7      7.77     -3.27
    3   29    7      0.86     -1.95
    5   29    7     -0.61     -0.55
    7   29    7      0.85      2.49
    9   29    7      0.08     -2.70
   -8   30    7     -0.02     -0.29
   -6   30    7     -0.42      2.80
   -4   30    7      4.17      7.92
   -2   30    7     -1.44      3.86
    0   30    7      1.09      3.60
    2   30    7      0.70     -6.04
    4   30    7      0.04      1.59
    6   30    7     -0.02     -1.06
    8   30    7      0.30     -1.00
   -7   31    7      0.65      2.42
   -5   31    7     -0.70     -2.43
   -3   31    7      2.88     -0.79
   -1   31    7     -0.28     -1.23
    1   31    7     -2.35     -0.40
    3   31    7     -0.43     -1.76
    5   31    7     -1.15     -0.83
   -6   32    7     -1.20     -0.78
   -4   32    7      1.07     -2.39
   -2   32    7     -3.87     -0.55
    0   32    7      0.39      2.39
    2   32    7      4.38     -3.69
    4   32    7     -0.95     -1.82
  -18    0    8     -5.40      1.17
   16    0    8      2.60      4.71
  -17    1    8     -0.83      0.65
   15    1    8     -3.76     -5.58
   17    1    8      4.43      2.04
  -18    2    8     -0.65     -1.73
   16    2    8      1.82     -2.07
  -17    3    8     -6.73      5.47
   15    3    8      7.17      7.23
   17    3    8      0.53     -2.77
  -18    4    8     -0.65     -0.26
   16    4    8      1.99     -0.66
  -17    5    8     -0.07      1.36
   15    5    8     -1.16      2.99
   17    5    8     -2.30      1.99
  -18    6    8      0.98     -0.77
   16    6    8      1.41     -0.06
  -17    7    8      3.04      0.41
   15    7    8      7.89     -0.04
   17    7    8     -2.53     -3.80
  -18    8    8      0.94     -3.82
   16    8    8     -0.72      2.35
  -17    9    8     -5.19      0.15
   15    9    8      2.21      0.35
   17    9    8     -5.72     -0.07
  -18   10    8      0.44     -0.64
  -16   10    8      7.04      0.65
   14   10    8      1.96     -3.02
   16   10    8      2.74     -1.93
  -17   11    8     -4.40     -2.53
   15   11    8      2.95     -1.71
  -18   12    8      0.32     -2.32
  -16   12    8      0.30     -0.18
   14   12    8      3.16     -4.54
   16   12    8     -5.71      2.13
  -17   13    8      3.18      3.28
  -15   13    8      3.80     -4.93
   13   13    8      3.91     -3.64
   15   13    8     -0.37     -3.51
  -18   14    8     -2.12     -2.89
  -16   14    8      2.02      1.08
   14   14    8     -2.72     -4.03
   16   14    8      1.21     -1.25
  -17   15    8     -3.51     -3.54
  -15   15    8     -2.32      4.86
   13   15    8      3.58      0.82
   15   15    8      1.12     -0.78
  -16   16    8      4.68      0.81
  -14   16    8     -1.71     -3.98
   12   16    8     -8.04      4.47
   14   16    8      5.63     -2.88
  -17   17    8     -1.54     -0.23
  -15   17    8      3.05      0.23
   13   17    8     -0.04     -1.48
   15   17    8     -1.84     -3.38
  -16   18    8     -4.80     -2.00
  -14   18    8      4.72      1.40
   12   18    8      0.17     -2.85
   14   18    8      0.68     -1.36
  -15   19    8     -0.08      0.40
  -13   19    8      1.41      8.16
   11   19    8     -3.58      6.67
   13   19    8     -1.92     -0.99
  -14   20    8      0.28     -0.19
  -12   20    8     -9.39     -0.43
   10   20    8     -4.81      1.28
   12   20    8     -0.40      2.79
  -15   21    8     -1.26     -0.65
  -13   21    8     -0.49     -3.97
   11   21    8      0.37      2.33
   13   21    8     -2.90     -1.04
  -14   22    8      2.57      4.19
  -12   22    8      1.75     -2.48
   10   22    8     -4.08      0.03
   12   22    8     -1.14      0.40
  -13   23    8     -2.63      0.85
  -11   23    8     -0.94      4.16
    9   23    8      0.74     -3.86
   11   23    8     -0.56     -0.14
  -12   24    8      0.32     -1.60
  -10   24    8     -1.01     -2.27
    8   24    8     -2.58     -7.62
   10   24    8     -1.03      0.44
  -13   25    8      1.51     -0.92
  -11   25    8     -3.36     -3.76
   -9   25    8     -2.08     -4.97
    7   25    8      8.93     -0.20
    9   25    8     -5.31     -8.57
   11   25    8     -2.02      4.05
  -12   26    8     -2.73      3.45
  -10   26    8      8.14     -2.72
   -8   26    8      1.90     -2.12
    6   26    8      2.51      3.88
    8   26    8     -2.52     -2.01
   10   26    8      3.36     -0.16
  -11   27    8     -0.24      0.14
   -9   27    8      4.02     -1.57
   -7   27    8     -1.11     -3.53
   -5   27    8      0.79      1.17
    3   27    8      0.78      6.00
    5   27    8      8.64      0.13
    7   27    8     -1.04     -3.57
    9   27    8     -2.48     -5.66
  -10   28    8     -3.78     -4.50
   -8   28    8      0.77      5.28
   -6   28    8     -2.52      8.09
   -4   28    8     15.89     -5.07
   -2   28    8      4.43     -1.06
    0   28    8      1.15     -0.90
    2   28    8     -0.33     -4.49
    4   28    8     -4.74      9.57
    6   28    8     -1.51      1.20
    8   28    8      1.04      0.08
   -9   29    8      2.14     -1.45
   -7   29    8     -2.59     -0.99
   -5   29    8     -0.67      0.68
   -3   29    8     -5.04      8.34
   -1   29    8      1.13      2.90
    1   29    8      3.64      2.78
    3   29    8     -0.17      0.77
    5   29    8      1.27     -4.65
    7   29    8     -1.35      2.07
   -8   30    8      0.13     -0.73
   -6   30    8     -1.19     -0.63
   -4   30    8      0.15      7.21
   -2   30    8      1.30      0.83
    0   30    8      0.49     -3.94
    2   30    8     -1.94      1.39
    4   30    8     -0.10      2.96
    6   30    8      4.09     -3.59
   -7   31    8     -1.88      3.91
   -5   31    8      1.55     -0.03
   -3   31    8      5.20     -2.67
   -1   31    8      1.77     -1.13
    1   31    8      0.07     -2.41
    3   31    8     -1.29      0.12
    5   31    8     -5.60      1.96
   -4   32    8     -0.95      0.63
   -2   32    8     -0.66      0.87
    0   32    8     -1.51      1.81
    2   32    8      1.02      0.35
  -18    0    9      6.36      5.88
   14    0    9      5.32     -0.98
   16    0    9      2.19     -6.22
  -17    1    9     -1.96     -3.84
   15    1    9     -0.51     -3.81
   17    1    9     -1.42     -0.47
  -18    2    9      1.80     -3.46
  -16    2    9     -3.61      1.40
   14    2    9      1.18     -6.74
   16    2    9     -3.13     -2.97
  -17    3    9      8.74     -0.16
   15    3    9      3.85     -3.72
  -18    4    9      0.40     -6.80
  -16    4    9     -4.14     -2.63
   14    4    9      3.89     -1.15
   16    4    9      0.63     -0.73
  -17    5    9      3.43     -0.36
   15    5    9      0.49      1.25
  -18    6    9     -1.35      3.36
  -16    6    9      9.50     -5.94
   14    6    9     -0.14     -5.42
   16    6    9      1.79     -0.49
  -17    7    9     -1.17     -9.51
   15    7    9      3.40      1.51
  -18    8    9      3.12      0.30
  -16    8    9     -1.58      1.78
   14    8    9     -1.53      6.60
   16    8    9      3.81      5.11
  -17    9    9     -4.14      4.66
   13    9    9     -1.26      0.46
   15    9    9      1.79     -2.24
  -18   10    9      0.26     -3.87
  -16   10    9     -1.36     -2.26
   14   10    9     -0.67     -0.26
   16   10    9      6.86      0.01
  -17   11    9      0.57     -0.74
  -15   11    9     -2.93      1.42
   13   11    9     -4.26     -4.22
   15   11    9      1.21      2.78
  -16   12    9      5.64      3.26
   14   12    9     -2.37      2.62
  -17   13    9     -1.18     -2.86
  -15   13    9     -3.81      7.11
   13   13    9     -0.42      0.87
   15   13    9      2.45      2.40
  -16   14    9      3.48     -0.58
  -14   14    9      1.06      1.07
   12   14    9      3.69      4.72
   14   14    9     -8.35     -1.62
  -17   15    9     -0.85      0.10
  -15   15    9     -1.24      5.99
   13   15    9     -0.13      0.22
  -16   16    9      0.33      6.21
  -14   16    9      1.77     -0.40
   12   16    9     -5.00     -4.59
   14   16    9     -1.23      4.48
  -15   17    9      3.97     -0.29
  -13   17    9      1.34      0.86
   11   17    9     -1.09      9.06
   13   17    9     -0.69      2.18
  -14   18    9     -1.17      6.93
  -12   18    9      5.55      1.78
   10   18    9     -2.26     -5.87
   12   18    9     -1.52      1.33
  -15   19    9      0.07      3.61
  -13   19    9      5.35     -0.54
   11   19    9      2.56     -3.81
   13   19    9     -0.93     -2.72
  -14   20    9      0.91      3.03
  -12   20    9     -4.45     -3.51
   10   20    9      2.29      5.86
   12   20    9      2.65      2.22
  -13   21    9      2.25     -0.10
  -11   21    9     -5.32      2.82
    9   21    9     -4.82    -11.09
   11   21    9     -4.76      4.08
  -14   22    9     -0.70      2.86
  -12   22    9      0.98     -3.61
  -10   22    9     -1.60     -0.73
    8   22    9      2.44      3.62
   10   22    9      3.28     -2.95
  -13   23    9      0.50      3.63
  -11   23    9      0.66     -3.39
   -9   23    9     -1.27     -3.15
    7   23    9     -7.82     -3.03
    9   23    9     -1.90      2.97
   11   23    9      4.31      1.81
  -12   24    9     -0.24     -0.51
  -10   24    9     -1.44     -5.44
   -8   24    9     -2.89     -3.79
    6   24    9      0.19      3.86
    8   24    9      1.94     -4.20
   10   24    9     -3.07     -1.25
  -11   25    9     -3.50      0.79
   -9   25    9      1.62     -1.88
   -7   25    9     -3.98      9.78
    3   25    9     10.49     -2.46
    5   25    9     -5.87      4.40
    7   25    9      1.25      2.16
    9   25    9      1.63     -1.62
  -10   26    9      1.17     -0.49
   -8   26    9     -2.20     -1.77
   -6   26    9     -0.51      0.46
   -4   26    9      2.79     -1.17
   -2   26    9     -0.61      5.27
    0   26    9      2.69     -4.15
    2   26    9      2.25      5.45
    4   26    9      0.92     -2.77
    6   26    9      0.71      2.21
    8   26    9     -3.52      0.15
   -9   27    9     -1.07     -5.83
   -7   27    9     -2.90      2.17
   -5   27    9      3.35     -8.06
   -3   27    9     -4.42      6.30
   -1   27    9     -0.99     -4.66
    1   27    9     -0.29     -5.15
    3   27    9      4.00      0.10
    5   27    9     -0.43      2.42
    7   27    9     -0.30     -0.81
   -8   28    9     -2.70      2.09
   -6   28    9      2.27      2.98
   -4   28    9     -0.49     -1.62
   -2   28    9      3.78     -0.87
    0   28    9      3.91     -1.25
    2   28    9      4.19     -2.44
    4   28    9     -2.07      4.61
    6   28    9      2.16      3.14
   -7   29    9     -6.02      1.43
   -5   29    9      3.08      0.44
   -3   29    9      0.39      0.00
   -1   29    9     -0.40      0.11
    1   29    9      1.87      1.56
    3   29    9      3.20      2.34
    5   29    9      0.85     -1.48
   -6   30    9      0.90     -2.90
   -4   30    9     -3.26      0.95
   -2   30    9     -1.20     -1.80
    0   30    9      2.84     -3.29
    2   30    9     -2.01      0.31
    4   30    9      0.08     -1.80
   -3   31    9     -0.38     -2.16
   -1   31    9      1.61     -0.74
    1   31    9     -1.81     -1.34
  -18    0   10      4.22      1.87
  -16    0   10      3.11     -1.81
   14    0   10     -7.39     -6.97
   16    0   10     -1.42     -3.28
  -17    1   10      6.21      0.62
   13    1   10      3.13      2.31
   15    1   10      0.03      1.21
  -18    2   10      1.60      0.34
  -16    2   10      0.67     -0.50
   14    2   10      1.14     -1.56
   16    2   10     -3.01     -0.93
  -17    3   10      6.10     -4.14
  -15    3   10      0.47     -3.48
   13    3   10      1.19     -5.83
   15    3   10     -4.33     -3.30
  -18    4   10      0.48     -0.11
  -16    4   10      2.95     -3.36
   14    4   10      5.46      2.65
  -17    5   10      2.89      1.83
  -15    5   10     -4.14     -4.71
   13    5   10      2.89     -1.49
   15    5   10     -0.56     -2.36
  -18    6   10     -2.65     -2.61
  -16    6   10      4.35      0.25
   14    6   10     -3.35     -0.05
  -17    7   10     -0.56     -2.17
  -15    7   10     -0.58     -3.64
   13    7   10     -6.24     -3.65
   15    7   10      1.97      0.38
  -16    8   10      1.69      0.60
   12    8   10    -10.12     -6.91
   14    8   10      2.01      1.51
  -17    9   10     -3.50     -2.22
  -15    9   10      3.56      4.58
   13    9   10     -3.57     -1.12
   15    9   10      2.39      3.01
  -16   10   10     -1.11     -0.96
  -14   10   10     -1.82     -2.72
   12   10   10      0.36     -5.94
   14   10   10      1.24      1.98
  -17   11   10      3.42      0.00
  -15   11   10     -0.41     -5.57
   13   11   10      0.86      2.17
  -16   12   10      1.04      3.27
  -14   12   10     -1.23     -3.23
   12   12   10     -5.14     -5.19
   14   12   10     -1.23      4.29
  -15   13   10     -4.03      2.95
  -13   13   10      4.05      1.11
   11   13   10      7.95     -3.65
   13   13   10     -1.52      3.86
  -16   14   10      3.50     -4.14
  -14   14   10     -2.39     -0.63
   12   14   10      2.98      2.70
   14   14   10     -3.59      0.76
  -15   15   10      2.22      2.09
  -13   15   10     -2.21      1.39
   11   15   10     -7.02     -3.30
   13   15   10     -0.59      2.82
  -14   16   10      0.08     -0.77
  -12   16   10      0.77      0.98
   10   16   10     10.54      5.79
   12   16   10     -0.71     -0.86
  -15   17   10      0.78     -2.64
  -13   17   10      2.98      3.77
    9   17   10     -1.33     -1.54
   11   17   10      1.48     -1.96
   13   17   10     -0.05      1.19
  -14   18   10     -2.22      2.20
  -12   18   10     -3.94      1.59
   10   18   10     -0.35     -2.84
   12   18   10     -2.41      2.55
  -13   19   10      2.07     -1.18
  -11   19   10      3.54     -1.02
    9   19   10      6.45      4.98
   11   19   10      1.71     -0.50
  -14   20   10      0.50      0.64
  -12   20   10      0.30     -1.34
  -10   20   10     -1.59      0.49
    8   20   10     -1.90     -7.50
   10   20   10     -0.42      1.53
  -13   21   10     -1.23      0.02
  -11   21   10     -1.65      2.75
   -9   21   10      9.45      0.72
    7   21   10    -11.39      7.62
    9   21   10      5.20      2.53
   11   21   10     -5.75     -1.71
  -12   22   10      2.72      3.23
  -10   22   10     -2.52     -1.46
   -8   22   10      1.96      3.04
    6   22   10      1.67      2.17
    8   22   10     -3.14      4.87
   10   22   10      4.26      1.83
  -11   23   10     -1.33     -2.39
   -9   23   10     -2.76      6.95
   -7   23   10      5.56     -2.58
    5   23   10      0.97      1.87
    7   23   10      4.10     -2.39
    9   23   10     -0.50      1.51
  -10   24   10      6.76      2.65
   -8   24   10     -1.59     -6.59
   -6   24   10     -8.69     -2.91
   -4   24   10      4.68    -10.21
    2   24   10      1.80     -9.73
    4   24   10     -2.33      0.19
    6   24   10     -2.78     -3.89
    8   24   10      1.28      4.34
   -9   25   10     -3.24      2.76
   -7   25   10      9.80     -0.22
   -5   25   10      2.91      1.30
   -3   25   10     -9.97    -10.91
   -1   25   10      2.54      2.20
    1   25   10     -3.43     -8.97
    3   25   10      0.26      6.75
    5   25   10      2.97     -3.00
    7   25   10     -1.92      0.60
   -8   26   10      0.80     -0.34
   -6   26   10     -0.52     -2.97
   -4   26   10      0.81     -4.62
   -2   26   10      3.12      0.51
    0   26   10     -3.00     -7.91
    2   26   10     -2.18      3.67
    4   26   10      0.57      1.82
    6   26   10      1.16     -0.57
   -7   27   10     -1.14     -0.28
   -5   27   10     -1.16     -3.42
   -3   27   10     -3.05     -3.64
   -1   27   10     -1.41      5.86
    1   27   10      0.06     -3.06
    3   27   10     -0.32      1.63
    5   27   10     -0.06     -2.37
   -6   28   10      1.31     -4.18
   -4   28   10     -7.62      1.73
   -2   28   10     -0.71     -3.33
    0   28   10      1.40     -1.48
    2   28   10     -2.52     -1.87
    4   28   10      1.02      1.04
   -5   29   10      0.25     -1.69
   -3   29   10      1.13     -1.58
   -1   29   10     -2.70     -4.04
    1   29   10      0.31     -0.71
    3   29   10      2.55      0.10
   -2   30   10     -1.77     -0.98
    0   30   10      1.04     -2.11
  -16    0   11      1.59      3.18
  -14    0   11      6.64     -4.00
   12    0   11     -0.36      6.46
   14    0   11      0.79     -3.08
  -17    1   11      0.91     -1.37
  -15    1   11     -5.11      5.64
   13    1   11      4.90     -1.38
  -16    2   11     -0.20     -0.26
  -14    2   11      7.95     -0.46
   12    2   11      6.05     -1.11
   14    2   11      1.95      3.06
  -17    3   11      1.19      2.98
  -15    3   11     -3.18     -0.05
   13    3   11      2.87      4.24
  -16    4   11     -1.73      4.15
  -14    4   11      6.13      3.27
   12    4   11     -1.06     -3.41
   14    4   11      1.33     -1.38
  -17    5   11     -0.90      0.92
  -15    5   11     -0.74     -2.61
   11    5   11      0.49     -3.76
   13    5   11      0.86      0.26
  -16    6   11     -0.98      9.48
  -14    6   11      0.36     -4.39
   12    6   11      1.37      5.64
   14    6   11      1.76     -0.66
  -17    7   11     -1.08      3.85
  -15    7   11      1.31      2.67
   11    7   11     -7.20     14.18
   13    7   11      4.04     -3.68
  -16    8   11     -0.36      2.44
  -14    8   11      5.04     -3.60
   12    8   11      0.70     -6.44
   14    8   11     -3.35      3.12
  -15    9   11     -3.14      3.23
  -13    9   11      0.07     -3.61
   11    9   11      0.31      3.12
   13    9   11      0.60     -1.84
  -16   10   11     -0.84     -0.60
  -14   10   11      0.29      5.59
   10   10   11     -3.65      2.98
   12   10   11     -0.61      1.46
  -15   11   11      4.75      1.55
  -13   11   11      1.71     -2.49
   11   11   11      1.26      2.03
   13   11   11      0.36      1.55
  -16   12   11      0.55      1.84
  -14   12   11     -0.35      0.22
  -12   12   11     -1.87     -2.84
   10   12   11      2.63     -4.35
   12   12   11     -0.32      4.35
  -15   13   11      0.56      1.77
  -13   13   11     -2.91      7.24
    9   13   11     -4.47     -7.52
   11   13   11      2.51      3.59
   13   13   11     -2.97      2.27
  -14   14   11      2.94      0.08
  -12   14   11      3.96     -2.45
   10   14   11     -0.33      0.68
   12   14   11      4.84     -2.26
  -15   15   11      0.03      2.85
  -13   15   11      2.95     -1.21
  -11   15   11     -3.07     -0.09
    9   15   11      2.15      0.02
   11   15   11      5.71      0.71
  -14   16   11      0.67      3.69
  -12   16   11      1.29     -1.30
    8   16   11      8.97      5.11
   10   16   11     -2.42      0.72
   12   16   11     -0.56      0.41
  -13   17   11      3.32      0.09
  -11   17   11      2.67     -5.38
    7   17   11     -7.08     -5.32
    9   17   11     -0.35      1.69
   11   17   11      1.93     -3.91
  -12   18   11      2.79     -0.83
  -10   18   11      2.35     -2.29
    6   18   11      0.52      4.55
    8   18   11     -4.96      4.31
   10   18   11      3.92      4.31
  -13   19   11      1.82     -1.44
  -11   19   11      1.00      1.73
   -9   19   11     -0.53      6.45
    7   19   11      3.39     -0.10
    9   19   11      4.37     -1.97
  -12   20   11      1.10      2.03
  -10   20   11      1.37     -1.50
   -8   20   11     -4.63     -5.31
    4   20   11    -10.45     -0.71
    6   20   11     -0.79     -2.44
    8   20   11      5.45      2.26
   10   20   11     -5.05     -3.01
  -11   21   11      4.53     -1.01
   -9   21   11     -7.83     -4.05
   -7   21   11     -4.80     -7.10
    3   21   11      3.40     -4.08
    5   21   11     -4.01     -5.46
    7   21   11     -6.14      0.10
    9   21   11     -1.42      7.66
  -10   22   11      0.01      0.22
   -8   22   11      1.32     -1.21
   -6   22   11      3.40     -3.12
   -4   22   11     -6.15     -4.03
   -2   22   11     -0.08     -3.23
    0   22   11      3.96      1.20
    2   22   11     -2.94     -1.00
    4   22   11      0.20      3.08
    6   22   11      2.35     -2.27
    8   22   11      0.45     -1.53
   -9   23   11     -2.44      1.37
   -7   23   11      7.46     -5.33
   -5   23   11     -4.07      2.24
   -3   23   11      5.96      1.48
   -1   23   11      6.09      2.73
    1   23   11     -1.95     -5.81
    3   23   11     -6.63      2.25
    5   23   11     -1.80      1.72
    7   23   11      5.84      2.78
  -10   24   11      4.81      1.47
   -8   24   11     -5.42     -5.37
   -6   24   11     -6.32     -4.10
   -4   24   11     -4.73     10.52
   -2   24   11      8.10      0.24
    0   24   11      0.15      5.10
    2   24   11     -0.83      0.17
    4   24   11     -3.07     -0.89
    6   24   11     -0.50     -5.82
   -9   25   11      0.51      1.98
   -7   25   11      3.68     -4.49
   -5   25   11     -3.21     -2.46
   -3   25   11     -3.00     -2.79
   -1   25   11     -1.88      3.52
    1   25   11     -1.13      1.75
    3   25   11     -3.29     -2.55
    5   25   11      1.20     -2.10
   -6   26   11      0.59      1.65
   -4   26   11      1.90     -0.92
   -2   26   11      1.48     -0.57
    0   26   11      1.61     -4.56
    2   26   11     -5.41      0.13
    4   26   11      2.55      0.53
   -5   27   11     -5.71      3.07
   -3   27   11      2.46      2.66
   -1   27   11      3.80      1.76
    1   27   11     -0.20      0.58
    3   27   11     -1.33      0.55
   -4   28   11     -1.71     -1.22
   -2   28   11     -3.89     -2.12
    0   28   11     -2.20      2.62
  -16    0   12      0.96     -1.62
  -14    0   12     -9.27     -3.24
   10    0   12     -4.01     -0.72
   12    0   12     -3.42     -6.46
  -15    1   12      0.57     -1.74
  -13    1   12     -0.37      0.05
   11    1   12      1.71      0.18
   13    1   12     -0.76     -3.02
  -16    2   12      6.03     -1.84
  -14    2   12     -1.75     -1.40
   10    2   12      2.12     12.86
   12    2   12     -0.77     -3.33
  -15    3   12     -6.92     -2.47
  -13    3   12      0.92      2.54
   11    3   12      1.82     -6.82
   13    3   12     -3.13      0.38
  -16    4   12      0.50      3.40
  -14    4   12      6.04     -5.42
   10    4   12     -6.36     -5.38
   12    4   12      0.95      0.17
  -15    5   12      1.69     -4.99
  -13    5   12     -4.08      5.73
   11    5   12      4.60      2.58
   13    5   12      2.89     -2.02
  -16    6   12     -5.41      2.08
  -14    6   12     -2.10      3.46
   10    6   12    -12.07      1.29
   12    6   12      2.33     -0.28
  -15    7   12      1.10      1.40
  -13    7   12      4.54     -6.15
    9    7   12     18.83     -9.49
   11    7   12    -11.27     -4.21
   13    7   12      2.98      2.84
  -14    8   12     -1.28      3.61
  -12    8   12     -0.37     -4.60
   10    8   12      0.65     14.50
   12    8   12      6.26     -0.87
  -15    9   12     -3.78     -0.29
  -13    9   12     -2.53      3.45
    9    9   12     -7.75      1.66
   11    9   12     -0.26      4.38
  -14   10   12      0.49      6.96
  -12   10   12      5.10     -8.20
   10   10   12      1.95     -7.99
   12   10   12     -5.21      2.10
  -15   11   12     -0.39      0.26
  -13   11   12      0.75     -4.60
  -11   11   12     -2.73      0.19
    9   11   12     -1.29     10.82
   11   11   12      4.47      0.83
  -14   12   12     -3.17     -1.04
  -12   12   12      5.02      1.97
    8   12   12     -0.82     -4.91
   10   12   12     -3.35      2.89
   12   12   12      0.28      4.64
  -13   13   12     -2.89      4.75
  -11   13   12     -0.08     -2.57
    7   13   12     10.32      3.93
    9   13   12      1.30     -4.58
   11   13   12     -2.96      0.60
  -14   14   12     -1.57     -0.41
  -12   14   12      3.63     -2.30
  -10   14   12     -5.26     -1.98
    8   14   12     -0.15      1.73
   10   14   12      0.38      2.53
  -13   15   12      0.45     -2.39
  -11   15   12      1.51      1.82
   -9   15   12      5.65      5.03
    7   15   12      7.17      2.41
    9   15   12     -1.25     -3.85
   11   15   12      3.17      2.33
  -12   16   12     -0.72     -1.35
  -10   16   12     -2.27     -2.20
   -8   16   12     -6.58      6.14
    6   16   12     -0.05     -8.12
    8   16   12      2.40      2.42
   10   16   12      0.36     -0.62
  -13   17   12     -4.90     -1.68
  -11   17   12      1.86      0.99
   -9   17   12     -4.17     -0.10
   -7   17   12     -0.69      0.97
    5   17   12      2.67      3.20
    7   17   12      1.60     -2.82
    9   17   12      1.80      1.65
  -12   18   12      2.57      0.90
  -10   18   12     -1.14     -2.42
   -8   18   12     -1.05     12.70
   -6   18   12     -0.75     -6.23
    4   18   12      0.12     -5.43
    6   18   12      1.22      0.92
    8   18   12      2.29     -1.83
  -11   19   12      0.46     -3.12
   -9   19   12     -1.38      1.26
   -7   19   12     -2.63     -0.83
   -5   19   12     -4.52      6.45
    1   19   12     -3.72     -1.78
    3   19   12     -8.03      3.16
    5   19   12      0.57      3.21
    7   19   12     -1.36    -10.05
    9   19   12      3.28      1.01
  -10   20   12     -0.10      2.20
   -8   20   12     -4.60      4.06
   -6   20   12      7.02     -0.64
   -4   20   12      4.89     -1.22
   -2   20   12      2.59    -13.63
    0   20   12      4.06    -11.64
    2   20   12    -12.68     10.85
    4   20   12      2.41      9.31
    6   20   12      3.21      0.37
    8   20   12     -1.84      2.08
   -9   21   12     -8.02      0.37
   -7   21   12      4.61      5.78
   -5   21   12     -3.10     -9.88
   -3   21   12      0.84      8.61
   -1   21   12     -6.13     -0.25
    1   21   12      3.25      3.21
    3   21   12     -0.24     -0.32
    5   21   12     -3.22      1.13
    7   21   12      3.46     -0.45
   -8   22   12     -5.64     -0.43
   -6   22   12     -4.31      3.80
   -4   22   12     -0.35      4.36
   -2   22   12     11.92    -11.98
    0   22   12      4.36     -2.28
    2   22   12      0.85      0.12
    4   22   12     -4.04     -1.04
    6   22   12     -0.02     -3.05
   -7   23   12      4.23     -1.61
   -5   23   12      2.43      0.78
   -3   23   12      7.98     -1.51
   -1   23   12      1.36     -9.49
    1   23   12     -2.67     -4.97
    3   23   12     -1.16      2.05
    5   23   12      2.71      3.90
   -6   24   12      4.06     -0.75
   -4   24   12     -1.41      1.18
   -2   24   12      0.75      1.85
    0   24   12     -1.79      0.48
    2   24   12     -0.01      5.39
    4   24   12     -0.88     -0.32
   -5   25   12     -0.28      3.20
   -3   25   12      4.15      0.47
   -1   25   12     -0.45      0.64
    1   25   12      1.92      2.69
    3   25   12     -0.54     -1.13
   -4   26   12      1.35      0.16
   -2   26   12     -0.38     -1.86
    0   26   12      1.82     -0.21
  -14    0   13     -2.20     -1.60
  -12    0   13     14.39     -4.40
    8    0   13     -2.02      6.49
   10    0   13      1.95     -2.54
   12    0   13      4.67     -4.44
  -15    1   13      1.91      3.52
  -13    1   13     -7.34      1.98
  -11    1   13      8.25     -8.77
    9    1   13      2.62      6.56
   11    1   13     -0.01     -0.21
  -14    2   13      0.97      1.22
  -12    2   13     -1.14      5.12
    8    2   13     -5.94      2.03
   10    2   13      0.41      2.57
   12    2   13     -1.89     -2.78
  -15    3   13      2.51     -0.76
  -13    3   13      3.45      0.07
  -11    3   13      4.63     -1.19
    9    3   13     -1.59      3.57
   11    3   13      6.85     -8.28
  -14    4   13      1.05      0.69
  -12    4   13    -10.56     -2.74
    8    4   13     -1.23      8.46
   10    4   13      2.84     -1.46
   12    4   13      0.50      4.10
  -15    5   13      5.30      2.07
  -13    5   13      1.35      1.50
  -11    5   13      4.84     11.65
    9    5   13     -4.58      3.21
   11    5   13      0.85      2.44
  -14    6   13      1.84      3.37
  -12    6   13      9.73      3.10
    8    6   13     -4.36      4.50
   10    6   13      0.94     -9.14
  -13    7   13     -1.51      1.36
  -11    7   13     -8.65     -3.12
    7    7   13     -6.07      8.38
    9    7   13      9.50      3.59
   11    7   13      2.31     -5.23
  -14    8   13      1.65      0.17
  -12    8   13     -2.10     -0.23
  -10    8   13      5.60     11.03
    8    8   13     -6.12     -4.73
   10    8   13      0.69      2.21
  -13    9   13      5.84      0.33
  -11    9   13      0.17      4.04
    7    9   13      4.49     -0.90
    9    9   13     -6.01      0.74
   11    9   13      1.75     -0.73
  -14   10   13      1.92     -0.72
  -12   10   13     -2.79      0.96
  -10   10   13     -0.44      4.66
    6   10   13     -2.51      1.36
    8   10   13      2.17      2.49
   10   10   13      4.70     -3.21
  -13   11   13     -2.03     -4.16
  -11   11   13     -2.49      4.90
   -9   11   13      9.15      4.21
    7   11   13      0.61     -2.90
    9   11   13      0.08      0.96
  -12   12   13      7.49     -0.74
  -10   12   13     -3.11     -0.14
   -8   12   13     12.65      1.44
    6   12   13      0.30     -2.61
    8   12   13      0.04      0.64
   10   12   13      0.62      4.26
  -13   13   13     -1.07      1.47
  -11   13   13      2.71      6.18
   -9   13   13      2.27     -7.73
    5   13   13      4.37     -5.72
    7   13   13      0.39     -1.44
    9   13   13      3.96     -0.06
  -12   14   13      0.83      0.16
  -10   14   13     -1.36     -0.68
   -8   14   13      3.34      0.49
    4   14   13    -10.90      0.49
    6   14   13      1.81      3.41
    8   14   13      0.04     -1.90
  -11   15   13      6.60     -0.34
   -9   15   13      5.44     -0.95
   -7   15   13      7.08      4.36
   -5   15   13     11.59     -3.05
    3   15   13     -0.05     -1.34
    5   15   13      1.96    -10.93
    7   15   13     -0.46     -2.04
    9   15   13      4.01      3.28
  -10   16   13      0.66     -2.41
   -8   16   13     -3.66     -3.65
   -6   16   13     -4.28      0.42
   -4   16   13      8.39     -3.24
    0   16   13      9.40     -2.42
    2   16   13     -2.33     -4.50
    4   16   13     -2.22     10.01
    6   16   13     -0.08     -5.03
    8   16   13      1.85     -1.42
  -11   17   13      1.62     -0.10
   -9   17   13      1.20      0.93
   -7   17   13     -5.17      2.30
   -5   17   13     -3.52     -5.46
   -3   17   13     -2.98     -9.94
   -1   17   13      7.41     -5.10
    1   17   13      1.20      1.37
    3   17   13      0.89      0.39
    5   17   13     -4.35      2.38
    7   17   13      3.26      1.67
  -10   18   13      4.40     -1.27
   -8   18   13      3.29      0.95
   -6   18   13      4.98      0.86
   -4   18   13     -4.07     -6.06
   -2   18   13     -4.76     -5.94
    0   18   13     -0.53      3.33
    2   18   13     -1.56     -6.17
    4   18   13      0.23     -1.06
    6   18   13      0.02     -5.74
   -9   19   13      0.54     -4.45
   -7   19   13     -5.11      0.70
   -5   19   13      4.96      1.67
   -3   19   13    -10.93     -4.92
   -1   19   13     13.43      0.19
    1   19   13     -0.96     -1.66
    3   19   13      2.29     -1.62
    5   19   13     -3.87     -2.54
   -8   20   13      1.31      6.11
   -6   20   13     -2.84     -1.91
   -4   20   13     -1.36     -6.80
   -2   20   13     -3.27     -3.43
    0   20   13      3.08      1.17
    2   20   13      0.56     -3.90
    4   20   13      2.40      3.56
    6   20   13      0.46      1.55
   -7   21   13      1.21      1.15
   -5   21   13      3.45     -2.09
   -3   21   13     -1.95     -3.58
   -1   21   13     -3.70     -1.95
    1   21   13      3.66     -0.43
    3   21   13     -5.69     -1.28
    5   21   13      2.36      2.03
   -6   22   13      0.18      1.87
   -4   22   13     -3.17      1.05
   -2   22   13      1.37      0.91
    0   22   13      5.00     -1.33
    2   22   13      1.99     -1.46
    4   22   13     -0.30     -2.57
   -5   23   13      0.45      0.55
   -3   23   13     -2.28      0.37
   -1   23   13     -2.40     -3.35
    1   23   13      0.64     -1.82
   -2   24   13     -4.15      0.24
  -12    0   14     -3.87    -10.50
  -10    0   14    -23.87      4.42
    6    0   14      4.20      1.08
    8    0   14      8.77     -1.02
   10    0   14      1.13     -3.23
  -13    1   14     -2.26      1.58
  -11    1   14      4.04     -4.16
   -9    1   14      1.72      2.46
    5    1   14      0.88      4.90
    7    1   14     -0.91     -4.64
    9    1   14      3.52      1.11
  -12    2   14      5.24      1.98
  -10    2   14     -0.74     -0.07
    6    2   14      6.03     -3.01
    8    2   14     -0.36     -4.26
   10    2   14     -0.97     -1.57
  -13    3   14     -1.93     -3.78
  -11    3   14    -15.71     -4.60
   -9    3   14      0.27      9.27
    5    3   14     -6.33      1.40
    7    3   14      5.77      1.18
    9    3   14      5.77     -3.47
  -12    4   14      3.07     -0.97
  -10    4   14     -0.79     -1.12
   -8    4   14      1.35      0.73
    6    4   14      0.52      0.14
    8    4   14     -0.61     -4.13
   10    4   14      0.04      5.95
  -13    5   14      3.32      1.57
  -11    5   14      4.98      0.75
   -9    5   14     -3.74      6.70
    5    5   14     -4.69      1.69
    7    5   14      1.66     -5.82
    9    5   14     -0.82     -2.21
  -12    6   14     -2.24     -1.64
  -10    6   14     -9.80      2.68
   -8    6   14      5.85     -2.78
    4    6   14      0.02      1.27
    6    6   14     -0.34      2.79
    8    6   14     -2.78     -0.78
   10    6   14      4.93     -3.95
  -13    7   14     -2.72      5.89
  -11    7   14      1.31     -3.90
   -9    7   14     -1.14      2.45
   -7    7   14      1.31     -9.28
    5    7   14      1.32      4.85
    7    7   14     -1.17     -0.12
    9    7   14     -2.40      1.91
  -12    8   14      4.86      2.18
  -10    8   14      0.54      4.11
   -8    8   14     -2.55      8.00
    4    8   14     -4.24      1.23
    6    8   14     -0.99      2.77
    8    8   14     -0.31     -2.77
  -11    9   14     -6.59      0.41
   -9    9   14      9.06     -2.38
   -7    9   14     -5.45     -7.35
    3    9   14     -5.18     -5.36
    5    9   14     -0.26      3.58
    7    9   14     -1.22      0.43
    9    9   14     -0.18     -2.24
  -12   10   14     -2.09      2.65
  -10   10   14      6.41      2.27
   -8   10   14     -4.89     -8.20
   -6   10   14    -14.81     -4.71
    2   10   14      2.87      5.11
    4   10   14      0.58      0.83
    6   10   14      2.95     -0.46
    8   10   14     -6.68     -0.11
  -11   11   14      0.12     -0.32
   -9   11   14     -0.44      6.54
   -7   11   14      3.92     -0.37
   -5   11   14      4.03     -0.30
    1   11   14     -3.36     10.44
    3   11   14      0.72     -0.59
    5   11   14     -1.56      7.73
    7   11   14     -0.54     -1.39
  -10   12   14     -1.23     -2.58
   -8   12   14      4.95     -4.95
   -6   12   14      2.97      1.41
   -4   12   14     -4.35     -1.70
   -2   12   14     -8.62     -0.79
    0   12   14      4.73      7.73
    2   12   14      0.25     -7.80
    4   12   14     -5.24     -1.74
    6   12   14     -1.88     -2.63
    8   12   14      2.69      2.72
  -11   13   14      2.78      1.47
   -9   13   14      2.17      0.02
   -7   13   14     -9.30     -6.23
   -5   13   14     -3.27      3.32
   -3   13   14      3.98     -1.85
   -1   13   14      2.82      3.16
    1   13   14      4.45      3.77
    3   13   14     -3.84      1.97
    5   13   14      8.86      1.41
    7   13   14     -4.17     -6.54
  -10   14   14     -3.07     -1.08
   -8   14   14      2.32      1.45
   -6   14   14      4.30      1.74
   -4   14   14     -4.40      0.10
   -2   14   14      3.58      2.63
    0   14   14     -4.08     -0.98
    2   14   14      6.51      3.75
    4   14   14     -0.42     -1.84
    6   14   14     -3.80      3.89
   -9   15   14      1.73     -2.44
   -7   15   14      1.71     -6.89
   -5   15   14      1.43      6.43
   -3   15   14     -5.65     -5.04
   -1   15   14      1.13      8.89
    1   15   14     -0.16     -1.84
    3   15   14     -7.97     -7.02
    5   15   14      2.48      0.02
   -8   16   14      2.13      1.40
   -6   16   14     -1.74     -2.61
   -4   16   14      4.55     -1.51
   -2   16   14     -4.87      0.99
    0   16   14      0.94      5.66
    2   16   14      0.57      1.52
    4   16   14     -0.52      0.61
    6   16   14      2.63     -3.00
   -9   17   14     -0.39      0.75
   -7   17   14      1.56      2.73
   -5   17   14     -0.23      0.31
   -3   17   14      2.17     -2.03
   -1   17   14      0.39      6.32
    1   17   14      0.52     -3.72
    3   17   14      5.68     -3.05
    5   17   14     -0.80      3.34
   -8   18   14      3.18     -3.81
   -6   18   14     -0.20      0.92
   -4   18   14      0.50      1.30
   -2   18   14      2.83     -3.06
    0   18   14      3.55      1.95
    2   18   14     -6.97     -5.09
    4   18   14     -0.10     -0.91
   -7   19   14      1.30      0.50
   -5   19   14      4.07     -2.64
   -3   19   14     -2.63     -1.63
   -1   19   14     -3.24      9.95
    1   19   14     -0.42     -0.98
    3   19   14     -0.89     -0.73
   -4   20   14     -2.51      2.15
   -2   20   14      1.56      1.99
    0   20   14     -0.62      2.06
    2   20   14      2.02     -2.38
   -3   21   14      0.49     -1.77
   -1   21   14      4.41     -3.27
    0    0    0      0.00      0.00
# SQUEEZE RESULTS (Version =  30715)
# Note: Data are Listed for all Voids in the P1 Unit Cell
# i.e. Centre of Gravity, Solvent Accessible Volume,
# Recovered number of Electrons in the Void and
# Details about the Squeezed Material
loop_
  _platon_squeeze_void_nr
  _platon_squeeze_void_average_x
  _platon_squeeze_void_average_y
  _platon_squeeze_void_average_z
  _platon_squeeze_void_volume
  _platon_squeeze_void_count_electrons
  _platon_squeeze_void_content
   1  0.008 -0.004  0.011      3819       786 ' '
# Missing Reflections Below sin(th)/lambda = 0.25
loop_
  _platon_missing_refln_index_h
  _platon_missing_refln_index_k
  _platon_missing_refln_index_l
  _platon_missing_refln_theta
    2    0    0     2.498
    1    1    0     1.440
    0    2    0     1.435
    2    2    0     2.882
    1    3    0     2.489
    0    4    0     2.871
   -2    0    1     2.816
    0    0    1     1.564
   -1    1    1     2.035
    1    1    1     2.214
    0    2    1     2.123
   -1    3    1     2.875
   -1    1    6     9.416
_platon_squeeze_void_probe_radius                  1.20
_platon_squeeze_details
)
TITL L15_053Mono in Cm
CELL   16.3840   28.3760   13.0790     90.00     95.58     90.00
SPGR Cm
# Solvent Accessible Volume =    3885.7
# Electrons Found in S.A.V. =     750.2
# Note: Atoms in Void as Cxxx and Qxxx all others
C101 0.276 0.504 0.219 !       3.06 eA-3
C102 0.718 0.502 0.844 !       2.87 eA-3
C103 0.439 0.495 0.734 !       2.78 eA-3
C104 0.843 0.321 0.267 !       2.63 eA-3
C105 0.254 0.485 0.795 !       2.61 eA-3
C106 0.315 0.152 0.254 !       2.54 eA-3
C107 0.159 0.012 0.828 !       2.50 eA-3
C108 0.372 0.496 0.719 !       2.40 eA-3
C109 0.313 0.499 0.797 !       2.36 eA-3
C110 0.442 0.497 0.563 !       2.31 eA-3
C111 0.366 0.501 0.359 !       2.30 eA-3
C112 0.435 0.165 0.269 !       2.30 eA-3
C113 0.466 0.486 0.809 !       2.25 eA-3
C114 0.873 0.359 0.292 !       2.24 eA-3
C115 0.332 0.192 0.190 !       2.22 eA-3
C116 0.355 0.481 0.281 !       2.19 eA-3
C117 0.421 0.503 0.453 !       2.18 eA-3
Q118 0.765 0.333 0.578 !       2.13 eA-3
Q119 0.765 0.661 0.578 !       2.12 eA-3
C120 0.846 0.327 0.769 !       2.05 eA-3
C121 0.395 0.503 0.797 !       2.03 eA-3
C122 0.612 0.498 0.187 !       2.02 eA-3
C123 0.829 0.325 0.685 !       2.02 eA-3
C124 0.832 0.025 0.112 !       2.01 eA-3
C125 0.371 0.217 0.762 !       1.99 eA-3
C126 0.398 0.502 0.218 !       1.99 eA-3
C127 0.330 0.501 0.906 !       1.99 eA-3
Q128 0.499 0.315 0.501 !       1.97 eA-3
C129 0.779 0.498 0.172 !       1.96 eA-3
C130 0.344 0.451 0.799 !       1.94 eA-3
C131 0.327 0.161 0.157 !       1.94 eA-3
C132 0.035 0.309 0.844 !       1.91 eA-3
C133 0.329 0.235 0.206 !       1.90 eA-3
C134 0.644 0.164 0.862 !       1.89 eA-3
C135 0.439 0.210 0.203 !       1.89 eA-3
C136 0.260 0.442 0.783 !       1.88 eA-3
C137 1.007 0.331 0.860 !       1.87 eA-3
Q138 0.792 0.310 0.596 !       1.83 eA-3
C139 0.031 0.296 0.764 !       1.82 eA-3
C140 0.867 0.274 0.150 !       1.82 eA-3
C141 0.135 0.046 0.734 !       1.82 eA-3
C142 0.172 0.048 0.826 !       1.80 eA-3
C143 0.301 0.216 0.263 !       1.79 eA-3
C144 0.871 0.322 0.798 !       1.78 eA-3
C145 0.264 0.327 0.015 !       1.78 eA-3
Q146 0.919 0.047 0.546 !       1.78 eA-3
C147 0.292 0.184 0.224 !       1.78 eA-3
C148 0.719 0.463 0.843 !       1.78 eA-3
C149 0.664 0.497 0.063 !       1.78 eA-3
C150 0.498 0.172 0.767 !       1.76 eA-3
C151 0.201 0.320 0.819 !       1.76 eA-3
C152 0.375 0.156 0.879 !       1.75 eA-3
C153 0.410 0.192 0.226 !       1.75 eA-3
C154 0.423 0.198 0.782 !       1.74 eA-3
C155 0.850 0.033 0.360 !       1.74 eA-3
C156 0.405 0.502 0.625 !       1.74 eA-3
C157 0.880 0.310 0.738 !       1.73 eA-3
C158 0.895 0.265 0.257 !       1.72 eA-3
C159 0.763 0.465 0.145 !       1.71 eA-3
Q160 1.002 0.499 0.594 !       1.71 eA-3
C161 0.658 0.167 0.156 !       1.70 eA-3
C162 0.842 0.020 0.202 !       1.70 eA-3
C163 0.731 0.225 0.177 !       1.70 eA-3
C164 0.281 0.174 0.281 !       1.70 eA-3
C165 0.564 0.499 0.875 !       1.69 eA-3
C166 0.596 0.473 0.887 !       1.68 eA-3
C167 0.881 0.383 0.753 !       1.68 eA-3
C168 0.172 0.034 0.193 !       1.66 eA-3
C169 0.887 0.037 0.801 !       1.65 eA-3
C170 0.816 0.347 0.344 !       1.64 eA-3
C171 0.319 0.159 0.657 !       1.64 eA-3
C172 0.804 0.347 0.746 !       1.63 eA-3
C173 0.157 0.351 0.169 !       1.63 eA-3
C174 0.702 0.498 0.156 !       1.62 eA-3
C175 0.827 0.043 0.927 !       1.62 eA-3
C176 0.066 0.055 0.737 !       1.62 eA-3
Q177 0.886 0.389 0.529 !       1.61 eA-3
C178 0.158 0.321 0.313 !       1.60 eA-3
C179 0.951 0.022 0.195 !       1.59 eA-3
C180 0.299 0.463 0.206 !       1.59 eA-3
C181 0.165 0.329 0.014 !       1.58 eA-3
C182 0.301 0.194 0.754 !       1.58 eA-3
C183 0.805 0.394 0.158 !       1.58 eA-3
C184 0.344 0.141 0.751 !       1.57 eA-3
Q185 0.755 0.498 0.344 !       1.56 eA-3
C186 0.365 0.145 0.780 !       1.56 eA-3
C187 0.402 0.484 0.906 !       1.56 eA-3
C188 0.432 0.212 0.284 !       1.56 eA-3
C189 0.826 0.040 0.016 !       1.55 eA-3
C190 0.688 0.184 0.199 !       1.55 eA-3
C191 0.858 0.355 0.375 !       1.54 eA-3
C192 0.287 0.106 0.253 !       1.53 eA-3
C193 0.373 0.169 0.643 !       1.53 eA-3
C194 0.301 0.501 0.390 !       1.53 eA-3
C195 0.217 0.053 0.154 !       1.53 eA-3
C196 0.164 0.505 0.781 !       1.53 eA-3
C197 0.799 0.359 0.175 !       1.52 eA-3
C198 0.756 0.193 0.183 !       1.52 eA-3
C199 0.645 0.500 0.734 !       1.51 eA-3
)
;
_shelx_fab_checksum              9235

