 
data_L15_036Hexa
 
_audit_creation_method            'SHELXL-2014/7'
_shelx_SHELXL_version_number      '2014/7'
_chemical_name_systematic         ?
_chemical_name_common             ?
_chemical_melting_point           ?
_chemical_formula_moiety          ?
_chemical_formula_sum
 'C19 H12 N2 Ni O6' 
_chemical_formula_weight          423.02

loop_
 _atom_type_symbol
 _atom_type_description
 _atom_type_scat_dispersion_real
 _atom_type_scat_dispersion_imag
 _atom_type_scat_source
 'C'  'C'   0.0033   0.0016
 'International Tables Vol C Tables 4.2.6.8 and 6.1.1.4'
 'H'  'H'   0.0000   0.0000
 'International Tables Vol C Tables 4.2.6.8 and 6.1.1.4'
 'N'  'N'   0.0061   0.0033
 'International Tables Vol C Tables 4.2.6.8 and 6.1.1.4'
 'O'  'O'   0.0106   0.0060
 'International Tables Vol C Tables 4.2.6.8 and 6.1.1.4'
 'Ni'  'Ni'   0.3393   1.1124
 'International Tables Vol C Tables 4.2.6.8 and 6.1.1.4'
 
_space_group_crystal_system       hexagonal
_space_group_IT_number            193
_space_group_name_H-M_alt         'P 63/m c m'
_space_group_name_Hall            '-P 6c 2'
 
_shelx_space_group_comment
;
The symmetry employed for this shelxl refinement is uniquely defined
by the following loop, which should always be used as a source of
symmetry information in preference to the above space-group names.
They are only intended as comments.
;
 
loop_
 _space_group_symop_operation_xyz
 'x, y, z'
 '-y, x-y, z'
 '-x+y, -x, z'
 '-x, -y, z+1/2'
 'y, -x+y, z+1/2'
 'x-y, x, z+1/2'
 'y, x, -z+1/2'
 'x-y, -y, -z+1/2'
 '-x, -x+y, -z+1/2'
 '-y, -x, -z'
 '-x+y, y, -z'
 'x, x-y, -z'
 '-x, -y, -z'
 'y, -x+y, -z'
 'x-y, x, -z'
 'x, y, -z-1/2'
 '-y, x-y, -z-1/2'
 '-x+y, -x, -z-1/2'
 '-y, -x, z-1/2'
 '-x+y, y, z-1/2'
 'x, x-y, z-1/2'
 'y, x, z'
 'x-y, -y, z'
 '-x, -x+y, z'
 
_cell_length_a                    16.833(2)
_cell_length_b                    16.833(2)
_cell_length_c                    11.241(2)
_cell_angle_alpha                 90
_cell_angle_beta                  90
_cell_angle_gamma                 120
_cell_volume                      2758.7(10)
_cell_formula_units_Z             6
_cell_measurement_temperature     173(2)
_cell_measurement_reflns_used     14648
_cell_measurement_theta_min       3.023
_cell_measurement_theta_max       27.462
 
_exptl_crystal_description        plate
_exptl_crystal_colour             green
_exptl_crystal_density_meas       ?
_exptl_crystal_density_method     ?
_exptl_crystal_density_diffrn     1.528          
_exptl_crystal_F_000              1296
_exptl_transmission_factor_min    ?
_exptl_transmission_factor_max    ?
_exptl_crystal_size_max           0.450
_exptl_crystal_size_mid           0.240
_exptl_crystal_size_min           0.110
_exptl_absorpt_coefficient_mu     1.094
_exptl_absorpt_correction_type    multi-scan
_exptl_absorpt_correction_T_min   0.639
_exptl_absorpt_correction_T_max   0.889
_exptl_absorpt_process_details    'Rigaku Rapid Auto'
_exptl_absorpt_special_details    ?
_diffrn_ambient_temperature       173(2)
_diffrn_radiation_wavelength      0.71073
_diffrn_radiation_type            MoK\a
_diffrn_source                    'fine-focus sealed tube' 
_diffrn_measurement_device_type   'imaging plate' 
_diffrn_measurement_method        'omega scans' 
_diffrn_detector_area_resol_mean  ?
_diffrn_reflns_number             22841
_diffrn_reflns_av_unetI/netI      0.0459
_diffrn_reflns_av_R_equivalents   0.1152
_diffrn_reflns_limit_h_min        -21
_diffrn_reflns_limit_h_max        20
_diffrn_reflns_limit_k_min        -21
_diffrn_reflns_limit_k_max        19
_diffrn_reflns_limit_l_min        -14
_diffrn_reflns_limit_l_max        14
_diffrn_reflns_theta_min          3.023
_diffrn_reflns_theta_max          27.462
_diffrn_reflns_theta_full         25.242
_diffrn_measured_fraction_theta_max   0.997
_diffrn_measured_fraction_theta_full  0.997
_diffrn_reflns_Laue_measured_fraction_max    0.997
_diffrn_reflns_Laue_measured_fraction_full   0.997
_diffrn_reflns_point_group_measured_fraction_max   0.997
_diffrn_reflns_point_group_measured_fraction_full  0.997
_reflns_number_total              1175
_reflns_number_gt                 938
_reflns_threshold_expression      'I > 2\s(I)'
_reflns_Friedel_coverage          0.000
_reflns_Friedel_fraction_max      .
_reflns_Friedel_fraction_full     .
 
_reflns_special_details
;
 Reflections were merged by SHELXL according to the crystal
 class for the calculation of statistics and refinement.
 
 _reflns_Friedel_fraction is defined as the number of unique
 Friedel pairs measured divided by the number that would be
 possible theoretically, ignoring centric projections and
 systematic absences.
;
 
_computing_data_collection        'Rigaku Rapid Auto' 
_computing_cell_refinement        'Rigaku Rapid Auto' 
_computing_data_reduction         'Rigaku Rapid Auto' 
_computing_structure_solution     'SHELXS'
_computing_structure_refinement   'SHELXL'
_computing_molecular_graphics     'ORTEP'
_computing_publication_material   'CIFTAB' 
_refine_special_details           ?
_refine_ls_structure_factor_coef  Fsqd
_refine_ls_matrix_type            full
_refine_ls_weighting_scheme       calc
_refine_ls_weighting_details
'w=1/[\s^2^(Fo^2^)+(0.0490P)^2^+54.5904P] where P=(Fo^2^+2Fc^2^)/3'
_atom_sites_solution_primary      ?
_atom_sites_solution_secondary    ?
_atom_sites_solution_hydrogens    geom
_refine_ls_hydrogen_treatment     constr
_refine_ls_extinction_method      none
_refine_ls_extinction_coef        .
_refine_ls_number_reflns          1175
_refine_ls_number_parameters      83
_refine_ls_number_restraints      0
_refine_ls_R_factor_all           0.1442
_refine_ls_R_factor_gt            0.1244
_refine_ls_wR_factor_ref          0.2876
_refine_ls_wR_factor_gt           0.2781
_refine_ls_goodness_of_fit_ref    1.138
_refine_ls_restrained_S_all       1.138
_refine_ls_shift/su_max           0.000
_refine_ls_shift/su_mean          0.000
 
loop_
 _atom_site_label
 _atom_site_type_symbol
 _atom_site_fract_x
 _atom_site_fract_y
 _atom_site_fract_z
 _atom_site_U_iso_or_equiv
 _atom_site_adp_type
 _atom_site_occupancy
 _atom_site_site_symmetry_order  
 _atom_site_calc_flag
 _atom_site_refinement_flags_posn
 _atom_site_refinement_flags_adp
 _atom_site_refinement_flags_occupancy
 _atom_site_disorder_assembly
 _atom_site_disorder_group
Ni1 Ni 0.0000 0.68277(13) 0.7500 0.0366(7) Uani 1 4 d S T P . .
N1 N 0.0000 0.6810(6) 0.9325(10) 0.043(3) Uani 1 2 d S T P . .
O1 O 0.0746(7) 0.8284(6) 0.7500 0.059(3) Uani 1 2 d S T P . .
O2 O 0.1215(6) 0.6777(6) 0.7500 0.046(2) Uani 1 2 d S T P . .
C6 C 0.2651(10) 0.5751(10) 0.7500 0.044(3) Uani 1 2 d S T P . .
H6 H 0.2190 0.5122 0.7500 0.053 Uiso 1 2 calc R U P . .
O3 O 0.0833(7) 0.5316(7) 0.7500 0.089(5) Uani 1 2 d S T P . .
C5 C 0.2413(9) 0.6411(9) 0.7500 0.036(3) Uani 1 2 d S T P . .
C1 C 0.0000 0.8282(11) 0.7500 0.071(8) Uani 1 4 d S T P . .
C4 C 0.1413(10) 0.6169(10) 0.7500 0.051(3) Uani 1 2 d S T P . .
C3 C 0.0839(11) 1.0000 0.7500 0.066(8) Uani 1 4 d S T P . .
H3 H 0.1403 1.0000 0.7500 0.079 Uiso 1 4 calc R U P . .
C2 C 0.0000 0.9180(10) 0.7500 0.063(8) Uani 1 4 d S T P . .
C9 C 0.0000 0.6906(8) 1.1848(12) 0.046(3) Uani 1 2 d S T P . .
C7 C -0.0728(9) 0.6469(12) 0.9986(12) 0.109(6) Uani 1 1 d . . . . .
H7 H -0.1300 0.6155 0.9583 0.131 Uiso 1 1 calc R U . . .
C8 C -0.0765(10) 0.6510(11) 1.1218(10) 0.102(6) Uani 1 1 d . . . . .
H8 H -0.1342 0.6253 1.1609 0.123 Uiso 1 1 calc R U . . .
 
loop_
 _atom_site_aniso_label
 _atom_site_aniso_U_11
 _atom_site_aniso_U_22
 _atom_site_aniso_U_33
 _atom_site_aniso_U_23
 _atom_site_aniso_U_13
 _atom_site_aniso_U_12
Ni1 0.0360(13) 0.0269(9) 0.0500(14) 0.000 0.000 0.0180(6)
N1 0.040(6) 0.038(4) 0.053(6) -0.008(4) 0.000 0.020(3)
O1 0.053(6) 0.036(5) 0.106(9) 0.000 0.000 0.035(5)
O2 0.037(5) 0.040(5) 0.065(6) 0.000 0.000 0.023(4)
C6 0.059(9) 0.050(8) 0.016(5) 0.000 0.000 0.022(7)
O3 0.030(5) 0.037(6) 0.198(16) 0.000 0.000 0.015(5)
C5 0.049(7) 0.049(7) 0.008(4) 0.000 0.000 0.023(6)
C1 0.046(12) 0.021(6) 0.15(3) 0.000 0.000 0.023(6)
C4 0.044(8) 0.044(8) 0.066(10) 0.000 0.000 0.024(7)
C3 0.023(7) 0.037(11) 0.14(3) 0.000 0.000 0.019(5)
C2 0.020(8) 0.017(6) 0.15(3) 0.000 0.000 0.010(4)
C9 0.054(8) 0.040(5) 0.049(8) 0.000(5) 0.000 0.027(4)
C7 0.060(8) 0.158(15) 0.052(6) -0.013(10) -0.010(7) 0.011(9)
C8 0.072(9) 0.126(13) 0.041(6) 0.002(8) 0.006(6) -0.001(8)
 
_geom_special_details
;
 All esds (except the esd in the dihedral angle between two l.s. planes)
 are estimated using the full covariance matrix.  The cell esds are taken
 into account individually in the estimation of esds in distances, angles
 and torsion angles; correlations between esds in cell parameters are only
 used when they are defined by crystal symmetry.  An approximate (isotropic)
 treatment of cell esds is used for estimating esds involving l.s. planes.
;
 
loop_
 _geom_bond_atom_site_label_1
 _geom_bond_atom_site_label_2
 _geom_bond_distance
 _geom_bond_site_symmetry_2
 _geom_bond_publ_flag
Ni1 N1 2.051(11) . ?
Ni1 N1 2.051(11) 16_557 ?
Ni1 O2 2.089(9) 9_556 ?
Ni1 O2 2.089(9) . ?
Ni1 O1 2.123(9) 9_556 ?
Ni1 O1 2.123(9) . ?
Ni1 C1 2.448(18) . ?
N1 C7 1.296(14) . ?
N1 C7 1.296(15) 24 ?
O1 C1 1.253(12) . ?
O2 C4 1.225(16) . ?
C6 C5 1.356(18) . ?
C6 C5 1.415(18) 2_665 ?
O3 C4 1.270(17) . ?
C5 C6 1.415(18) 3_565 ?
C5 C4 1.521(19) . ?
C1 O1 1.253(12) 9_556 ?
C1 C2 1.51(2) . ?
C3 C2 1.396(11) . ?
C3 C2 1.396(11) 2_675 ?
C2 C3 1.396(11) 3_465 ?
C9 C8 1.322(15) . ?
C9 C8 1.322(15) 24 ?
C9 C9 1.47(3) 16_558 ?
C7 C8 1.390(18) . ?
 
loop_
 _geom_angle_atom_site_label_1
 _geom_angle_atom_site_label_2
 _geom_angle_atom_site_label_3
 _geom_angle
 _geom_angle_site_symmetry_1
 _geom_angle_site_symmetry_3
 _geom_angle_publ_flag
N1 Ni1 N1 178.4(6) . 16_557 ?
N1 Ni1 O2 89.57(16) . 9_556 ?
N1 Ni1 O2 89.57(16) 16_557 9_556 ?
N1 Ni1 O2 89.57(16) . . ?
N1 Ni1 O2 89.57(16) 16_557 . ?
O2 Ni1 O2 116.0(5) 9_556 . ?
N1 Ni1 O1 90.7(3) . 9_556 ?
N1 Ni1 O1 90.7(3) 16_557 9_556 ?
O2 Ni1 O1 91.2(4) 9_556 9_556 ?
O2 Ni1 O1 152.8(4) . 9_556 ?
N1 Ni1 O1 90.7(3) . . ?
N1 Ni1 O1 90.7(3) 16_557 . ?
O2 Ni1 O1 152.8(4) 9_556 . ?
O2 Ni1 O1 91.2(4) . . ?
O1 Ni1 O1 61.6(5) 9_556 . ?
N1 Ni1 C1 90.8(3) . . ?
N1 Ni1 C1 90.8(3) 16_557 . ?
O2 Ni1 C1 122.0(3) 9_556 . ?
O2 Ni1 C1 122.0(3) . . ?
O1 Ni1 C1 30.8(3) 9_556 . ?
O1 Ni1 C1 30.8(3) . . ?
C7 N1 C7 109.9(14) . 24 ?
C7 N1 Ni1 125.0(7) . . ?
C7 N1 Ni1 125.0(7) 24 . ?
C1 O1 Ni1 89.1(9) . . ?
C4 O2 Ni1 135.7(10) . . ?
C5 C6 C5 119.9(15) . 2_665 ?
C6 C5 C6 120.1(15) . 3_565 ?
C6 C5 C4 121.4(12) . . ?
C6 C5 C4 118.5(12) 3_565 . ?
O1 C1 O1 120.3(17) 9_556 . ?
O1 C1 C2 119.9(8) 9_556 . ?
O1 C1 C2 119.9(8) . . ?
O1 C1 Ni1 60.1(8) 9_556 . ?
O1 C1 Ni1 60.1(8) . . ?
C2 C1 Ni1 180.0 . . ?
O2 C4 O3 124.6(14) . . ?
O2 C4 C5 120.2(12) . . ?
O3 C4 C5 115.2(12) . . ?
C2 C3 C2 118(2) . 2_675 ?
C3 C2 C3 122(2) 3_465 . ?
C3 C2 C1 118.9(10) 3_465 . ?
C3 C2 C1 118.9(10) . . ?
C8 C9 C8 115.2(15) . 24 ?
C8 C9 C9 122.4(7) . 16_558 ?
C8 C9 C9 122.4(7) 24 16_558 ?
N1 C7 C8 127.3(13) . . ?
C9 C8 C7 120.1(13) . . ?
 
_refine_diff_density_max    1.745
_refine_diff_density_min   -1.833
_refine_diff_density_rms    0.155

_shelx_res_file
;

    L15_036Hexa.res created by SHELXL-2014/7

TITL L15_036Hexa in P6(3)/mcm
CELL 0.71073  16.8334  16.8334  11.2415  90.000  90.000 120.000
ZERR    6.00   0.0024   0.0024   0.0022   0.000   0.000   0.000
LATT 1
SYMM -Y, X-Y, Z
SYMM -X+Y, -X, Z
SYMM -X, -Y, 0.5+Z
SYMM Y, -X+Y, 0.5+Z
SYMM X-Y, X, 0.5+Z
SYMM Y, X, 0.5-Z
SYMM X-Y, -Y, 0.5-Z
SYMM -X, -X+Y, 0.5-Z
SYMM -Y, -X, -Z
SYMM -X+Y, Y, -Z
SYMM X, X-Y, -Z
SFAC C  H  N  O  Ni
UNIT 114 72 12 36 6
L.S. 8
ACTA
BOND
FMAP 2
PLAN 8
SIZE 0.45 0.24 0.11
TEMP -100
WGHT    0.049000   54.590401
FVAR       0.09937
NI1   5    0.000000    0.682770    0.750000    10.25000    0.03604    0.02686 =
         0.04998    0.00000    0.00000    0.01802
N1    3    0.000000    0.681035    0.932464    10.50000    0.04046    0.03802 =
         0.05259   -0.00838    0.00000    0.02023
O1    4    0.074558    0.828367    0.750000    10.50000    0.05254    0.03629 =
         0.10615    0.00000    0.00000    0.03497
O2    4    0.121496    0.677735    0.750000    10.50000    0.03718    0.03955 =
         0.06545    0.00000    0.00000    0.02314
C6    1    0.265121    0.575130    0.750000    10.50000    0.05930    0.04955 =
         0.01571    0.00000    0.00000    0.02185
AFIX  43
H6    2    0.218953    0.512217    0.750000    10.50000   -1.20000
AFIX   0
O3    4    0.083298    0.531609    0.750000    10.50000    0.03023    0.03692 =
         0.19817    0.00000    0.00000    0.01531
C5    1    0.241320    0.641129    0.750000    10.50000    0.04878    0.04858 =
         0.00781    0.00000    0.00000    0.02301
C1    1    0.000000    0.828166    0.750000    10.25000    0.04599    0.02143 =
         0.15252    0.00000    0.00000    0.02300
C4    1    0.141322    0.616917    0.750000    10.50000    0.04438    0.04374 =
         0.06642    0.00000    0.00000    0.02401
C3    1    0.083858    1.000000    0.750000    10.25000    0.02322    0.03718 =
         0.14226    0.00000    0.00000    0.01859
AFIX  43
H3    2    0.140294    0.999999    0.750000    10.25000   -1.20000
AFIX   0
C2    1    0.000000    0.918023    0.750000    10.25000    0.02030    0.01742 =
         0.15153    0.00000    0.00000    0.01015
C9    1    0.000000    0.690623    1.184832    10.50000    0.05377    0.03957 =
         0.04876    0.00048    0.00000    0.02688
C7    1   -0.072806    0.646858    0.998609    11.00000    0.05964    0.15789 =
         0.05178   -0.01326   -0.01004    0.01104
AFIX  43
H7    2   -0.130010    0.615452    0.958347    11.00000   -1.20000
AFIX   0
C8    1   -0.076550    0.651017    1.121835    11.00000    0.07166    0.12589 =
         0.04143    0.00162    0.00623   -0.00144
AFIX  43
H8    2   -0.134237    0.625344    1.160856    11.00000   -1.20000
AFIX   0
HKLF 4

REM  L15_036Hexa in P6(3)/mcm
REM R1 =  0.1244 for     938 Fo > 4sig(Fo)  and  0.1442 for all    1175 data
REM     83 parameters refined using      0 restraints

END

WGHT      0.0490     54.5897

REM Highest difference peak  1.745,  deepest hole -1.833,  1-sigma level  0.155
Q1    1   0.0000  0.6377  0.7500  10.25000  0.05    1.75
Q2    1   0.0000  0.6841  0.8385  10.50000  0.05    1.48
Q3    1   0.0000  1.0000  0.8050  10.16667  0.05    0.80
Q4    1   0.2368  0.6427  0.8098  11.00000  0.05    0.70
Q5    1   0.2138  0.5817  0.7500  10.50000  0.05    0.69
Q6    1   0.0214  0.6641  1.1872  11.00000  0.05    0.59
Q7    1   0.2095  0.7019  0.7500  10.50000  0.05    0.59
Q8    1   0.0000  0.5676  0.8085  10.50000  0.05    0.53
;
_shelx_res_checksum   10904

_shelx_hkl_file
;
   0   0   2 3352.45  340.07
   0   0  -2 3332.05  338.01
   0   0   3  137.35    4.07
   0   0  -3  124.38    3.07
   0   0   4 2278.93  192.97
   0   0  -4 2356.37  198.30
   0   0   5  215.07    6.30
   0   0  -5  241.55    7.87
   0   0   6  627.10   28.24
   0   0  -6  611.95   25.56
   0   0   7   95.27    3.67
   0   0  -7   98.55    3.59
   0   0   8  373.72   14.05
   0   0  -8  392.02   15.63
   0   0   9   73.97    3.70
   0   0  -9   74.63    3.39
   0   0  10   62.27    3.50
   0   0 -10   64.85    3.37
   0   0  11   84.27    4.50
   0   0 -11   73.94    2.99
   0   0  12   45.17    3.40
   0   0 -12   44.58    3.15
   0   0  13   21.75    1.87
   0   0 -13   26.28    2.57
   0   0  14    9.28    2.46
   0   0 -14   11.73    2.25
   0  -1   2    1.28    0.59
   1  -1   2    1.67    0.60
  -1   0   2    2.88    0.60
   1   0   2    1.90    0.60
  -1   1   2    1.39    0.60
   0   1   2    0.97    0.35
   0   1  -2    1.61    0.59
  -1   1  -2    1.60    0.60
   1   0  -2    1.77    0.59
  -1   0  -2    2.02    0.60
   0  -1  -2    1.64    0.61
   1  -1  -2    1.98    0.59
   0  -1   3    5.46    0.76
   1  -1   3    5.30    0.76
  -1   0   3    4.81    0.75
   1   0   3    5.43    0.75
  -1   1   3    4.41    0.75
   0   1   3    3.88    0.45
   0   1  -3    6.01    0.76
  -1   1  -3    4.40    0.73
   1   0  -3    5.37    0.74
  -1   0  -3    4.89    0.76
   1  -1  -3    4.55    0.72
   0  -1  -3    5.98    0.77
   0  -1   4    2.70    0.69
  -1   0   4    1.98    0.67
   1   0   4    4.88    0.71
  -1   1   4    2.93    0.69
   0   1   4    4.53    0.72
   0   1  -4    3.41    0.68
   1   0  -4    3.14    0.65
  -1   0  -4    3.94    0.68
   1  -1  -4    3.22    0.67
   0  -1  -4    5.26    0.72
   0  -1   5   17.23    1.26
   1  -1   5   10.51    1.23
   1   0   5   14.69    1.24
  -1   0   5   15.92    1.25
  -1   1   5   14.50    1.27
   0   1   5   18.78    1.28
   0   1  -5   12.81    1.17
  -1   0  -5   13.01    1.21
   1  -1  -5   15.37    1.23
   1  -1   6    5.94    0.92
   0  -1   6    2.57    0.56
  -1   1   6    3.19    0.93
   1   0   6    5.30    0.91
  -1   1  -6    2.09    0.89
  -1   0  -6    5.78    0.91
   1   0  -6    3.32    0.87
   0  -1  -6    5.66    0.94
   0  -1   7   12.69    1.23
  -1   0   7    8.31    1.20
  -1   1   7    7.79    1.17
  -1   1  -7   11.76    1.16
   1   0  -7    7.09    1.09
  -1   0  -7    6.58    1.10
   1  -1  -7   10.39    1.19
   1  -1   8   13.50    1.47
  -1   0   8   12.15    1.44
   1   0   8   11.16    1.41
  -1   1   8   12.92    1.47
   0   1   8   11.68    1.41
  -1   1  -8   12.26    1.35
  -1   0  -8   11.34    1.35
   1  -1   9   19.33    1.80
   0   1   9   19.30    1.81
  -1   1   9   17.07    1.80
  -1   1  -9   10.94    1.63
   1   0  -9   17.18    1.63
   1  -1  -9   15.72    1.73
   1  -1  10    4.30    1.42
   0  -1  10    3.95    0.89
  -1   0  10    2.78    1.45
   1   0  10    2.66    0.87
  -1   1  10    3.95    1.45
  -1   1 -10    4.65    1.35
   1   0 -10    3.97    1.29
  -1   0 -10    4.05    1.35
   1  -1 -10    4.81    1.35
   1  -1  11   26.14    2.46
   1   0  11   23.54    2.38
  -1   1  11   20.89    2.41
  -1   1 -11   24.96    2.22
   1   0 -11   21.31    2.22
  -1   0 -11   18.65    2.20
   1  -1 -11   23.43    2.30
   0  -1  12    8.30    1.92
  -1   0  12    8.38    1.97
  -1   1  12    7.93    1.98
   1   0  12    8.12    1.95
  -1   1 -12   10.13    1.79
   1   0 -12    8.81    1.72
   0   1 -12    4.82    1.11
   1  -1 -12    9.04    1.79
  -1   0 -12    7.34    1.77
   0  -1  13   12.08    2.09
   1  -1  13    9.18    2.10
   1   0  13    4.25    2.09
  -1   0  13    5.76    2.06
  -1   1  13    6.87    2.06
  -1   0 -13    4.20    1.88
   1   0 -13    5.08    1.85
  -1   1 -13    5.38    1.92
   0   1 -13   12.76    1.96
   1  -1 -13    7.04    1.93
   0  -1 -13   13.89    2.01
   1  -1  14    2.35    1.27
   0  -1  14    0.75    2.09
  -1   0  14    3.93    2.12
  -1   1  14    4.33    2.06
   1   0  14    2.90    1.98
   0   1  14    2.92    1.23
  -1   1 -14    2.52    1.89
   0   1 -14    5.34    1.94
   0  -1 -14    8.45    1.88
  -1   0 -14    2.86    1.14
   1   0 -14    4.84    1.87
   1  -1 -14    3.15    1.89
  -2   1   1  218.76    4.95
   1  -2   1  211.96    4.80
  -1  -1   1  208.92    4.54
   2  -1   1  211.11    4.48
  -2   1   1  210.09    4.43
   1   1   1  214.87    4.72
  -1   2   1  218.15    5.02
   1   1  -1  210.83    4.70
   2  -1  -1  206.41    4.34
  -1   2  -1  207.84    4.40
   1   1  -1  208.31    4.54
  -2   1  -1  213.33    4.48
   2  -1  -1  214.00    4.51
  -1  -1  -1  218.71    4.75
   1  -2  -1  214.05    4.56
   1  -2   2   63.82    1.89
  -1  -1   2   63.97    1.82
   2  -1   2   63.57    1.83
  -2   1   2   64.52    1.82
   1   1   2   62.90    1.84
  -1   2   2   63.81    1.97
  -1   2  -2   64.68    1.91
   1   1  -2   63.69    1.80
  -2   1  -2   65.35    1.81
   2  -1  -2   62.75    1.76
  -1  -1  -2   61.71    1.34
   1  -2  -2   64.75    1.98
   1  -2   3  277.13    8.26
  -1  -1   3  281.56    8.31
   2  -1   3  284.68    8.40
  -2   1   3  275.52    7.44
   1   1   3  282.46    8.42
  -1   2   3  266.59    7.22
  -1   2  -3  280.74    8.31
   1   1  -3  284.94    8.39
  -2   1  -3  285.96    8.41
   2  -1  -3  281.18    8.28
  -1  -1  -3  287.76    8.46
   1  -2  -3  282.43    8.45
   1  -2   4   13.38    0.57
  -1  -1   4   14.06    0.88
   2  -1   4   14.02    0.86
  -2   1   4   14.24    0.87
   1   1   4   14.08    0.88
  -1   2   4   14.24    0.90
  -1   2  -4   13.53    0.55
   1   1  -4   13.68    0.55
  -2   1  -4   15.17    0.85
   2  -1  -4   14.15    0.85
  -1  -1  -4   12.76    0.55
   1  -2  -4   13.37    0.89
   1  -2   5  490.23   19.75
  -1  -1   5  488.05   18.18
   2  -1   5  490.81   19.67
  -2   1   5  488.24   18.24
   1   1   5  476.05   17.86
  -1   2   5  478.70   17.97
  -1   2  -5  498.80   19.63
   1   1  -5  504.19   19.82
  -2   1  -5  508.93   20.06
   2  -1  -5  500.43   19.74
  -1  -1  -5  509.00   20.28
   1  -2  -5  490.44   19.37
   1  -2   6   10.65    0.72
  -1  -1   6   11.33    1.10
   2  -1   6   12.42    1.10
  -2   1   6   13.12    1.11
   1   1   6   11.41    1.12
  -1   2   6   12.69    1.12
  -1   2  -6   11.58    1.08
   1   1  -6   12.63    1.04
  -2   1  -6   12.73    0.70
   2  -1  -6   13.15    1.05
   1  -2  -6   11.65    1.11
  -1  -1  -6   10.51    1.10
   1  -2   7   61.00    2.53
  -1  -1   7   61.21    2.49
   2  -1   7   62.68    2.54
  -2   1   7   64.32    2.63
   1   1   7   62.93    2.52
  -1   2   7   63.77    2.58
  -1   2  -7   61.95    2.44
   1   1  -7   61.30    1.82
  -2   1  -7   64.86    2.46
   2  -1  -7   62.48    2.39
  -1  -1  -7   62.98    1.87
   1  -2  -7   62.25    2.56
   1  -2   8   24.56    1.79
  -1  -1   8   24.04    1.76
   2  -1   8   26.52    1.77
  -2   1   8   26.64    1.78
   1   1   8   24.72    1.79
  -1   2   8   23.69    1.21
  -1   2  -8   25.88    1.69
   1   1  -8   25.34    1.68
  -2   1  -8   28.15    1.73
  -1  -1  -8   26.48    1.74
   2  -1  -8   27.20    1.68
   1  -2  -8   23.87    1.16
   1  -2   9   35.66    2.44
  -1  -1   9   37.06    2.43
   2  -1   9   37.16    1.63
  -2   1   9   37.86    1.70
  -1   2   9   37.08    2.45
   1   1   9   37.12    2.45
  -1   2  -9   40.31    2.33
   1   1  -9   38.36    2.28
  -2   1  -9   41.34    2.31
   2  -1  -9   40.02    2.24
  -1  -1  -9   41.68    2.33
   1  -2  -9   38.43    2.36
   1  -2  10    8.00    1.54
  -1  -1  10    4.09    1.54
   2  -1  10    5.88    1.50
  -2   1  10    5.85    1.56
  -1   2  10    7.25    1.55
   1   1  10    8.10    1.57
   1   1 -10    5.74    1.41
  -1   2 -10    6.57    1.41
  -2   1 -10    8.31    1.45
  -1  -1 -10    7.35    1.46
   2  -1 -10    8.31    1.43
   1  -2 -10   10.39    1.54
   1  -2  11   35.99    2.95
  -1  -1  11   37.78    2.93
   2  -1  11   39.09    2.96
   1   1  11   37.16    2.92
  -2   1  11   40.68    2.99
  -1   2  11   38.87    2.93
  -1   2 -11   36.69    2.72
   1   1 -11   44.27    2.84
   2  -1 -11   38.89    2.71
  -2   1 -11   40.45    2.81
  -1  -1 -11   38.07    1.96
   1  -2 -11   36.22    2.74
   1  -2  12   14.50    2.23
   2  -1  12   17.23    2.21
  -1  -1  12   12.56    2.19
   1   1  12   13.58    2.18
  -1   2  12   22.17    2.33
  -1   2 -12   14.98    2.06
  -2   1 -12   14.36    2.09
   1   1 -12   11.67    2.00
   2  -1 -12   13.50    1.30
  -1  -1 -12   14.46    2.10
   1  -2 -12   21.77    2.15
   1  -2  13    3.28    1.94
  -1  -1  13    5.77    1.92
  -2   1  13    6.22    1.96
   2  -1  13    4.81    1.93
   1   1  13    5.52    1.89
  -1   2  13    5.30    1.89
   1   1 -13    4.72    1.75
  -2   1 -13    3.01    1.75
   2  -1 -13    4.26    1.77
  -1  -1 -13    4.47    1.10
   1  -2 -13    6.69    1.81
   1  -2  14    6.33    2.18
  -1  -1  14    3.43    2.12
   2  -1  14    3.76    2.12
   1   1  14    3.24    2.06
  -1   2  14    5.49    2.10
  -2   1  14    4.76    2.08
  -1   2 -14    5.48    1.95
  -2   1 -14    5.48    1.93
   1   1 -14    6.44    1.97
   2  -1 -14    3.88    1.91
  -1  -1 -14    2.78    2.01
   1  -2 -14    5.44    2.02
  -2   2   1    0.29    0.40
  -2   0   1    0.00    0.23
   0  -2   1   -0.12    0.35
   2  -2   1   -0.22    0.30
  -2   0   1    0.04    0.23
   2   0   1   -0.08    0.32
  -2   2   1    0.35    0.32
   0   2   1   -0.11    0.22
   2  -2  -1   -0.10    0.28
   2   0  -1    0.23    0.40
   0   2  -1   -0.06    0.36
  -2   2  -1    0.14    0.30
   2   0  -1   -0.04    0.22
  -2   0  -1    0.06    0.22
   2  -2  -1   -0.21    0.32
   0  -2  -1    0.06    0.38
   0  -2   2   21.84    1.05
   2  -2   2   21.06    1.03
  -2   0   2   21.53    0.99
   2   0   2   21.25    0.97
  -2   2   2   20.62    1.02
   0   2   2   21.42    1.13
   0   2  -2   20.56    0.68
  -2   2  -2   21.27    1.00
   2   0  -2   21.40    0.95
  -2   0  -2   21.87    0.99
   2  -2  -2   22.63    1.06
   0  -2  -2   23.18    1.13
   0  -2   3    0.00    0.54
   2  -2   3    0.88    0.53
  -2   0   3    1.10    0.52
   2   0   3   -0.25    0.50
  -2   2   3    2.11    0.52
   0   2   3   -0.20    0.54
   0   2  -3    0.88    0.52
  -2   2  -3    1.43    0.51
   2   0  -3    0.75    0.50
  -2   0  -3    0.75    0.31
   2  -2  -3    0.34    0.32
   0  -2  -3    0.47    0.57
   0  -2   4    2.31    0.63
   2  -2   4    1.88    0.63
  -2   0   4    2.73    0.61
   2   0   4    3.01    0.62
  -2   2   4    2.15    0.39
   0   2   4    2.02    0.61
   0   2  -4    1.51    0.61
  -2   2  -4    2.60    0.60
   2   0  -4    2.21    0.59
  -2   0  -4    3.31    0.61
   2  -2  -4    2.20    0.63
   0  -2  -4    2.67    0.64
   0  -2   5    1.99    0.87
   2  -2   5    5.21    0.94
   0   2   5    4.20    0.92
  -2   2  -5    5.74    0.89
   0  -2  -5    5.52    0.91
   2  -2   6    1.15    0.80
   0  -2   6   -0.08    0.81
  -2   0   6    1.41    0.80
   2   0   6    1.30    0.48
  -2   2   6    1.23    0.80
   0   2   6   -0.54    0.79
   0   2  -6    0.79    0.76
  -2   2  -6    2.12    0.77
   2   0  -6    2.48    0.74
  -2   0  -6    2.50    0.76
   2  -2  -6    0.27    0.47
   0  -2  -6    0.58    0.78
   0  -2   7    0.89    0.88
   2  -2   7    1.92    0.85
   2   0   7    2.86    0.88
   0   2   7    0.60    0.89
   0   2  -7    0.73    0.83
  -2   2  -7    1.86    0.85
   2   0  -7    0.47    0.80
  -2   0  -7    0.94    0.51
   2  -2  -7    0.97    0.87
   0  -2  -7    0.58    0.87
   2  -2   8    3.82    1.22
  -2   0   8    4.48    1.17
   2   0   8    8.02    1.20
  -2   2  -8    5.66    1.12
   2   0  -8    3.14    1.10
  -2   0  -8    8.56    1.13
   2  -2  -8    7.75    1.19
   0  -2   9   -0.69    1.20
   2  -2   9    1.68    0.73
   2   0   9    2.03    0.72
  -2   2   9    2.20    0.73
   0   2   9    0.92    1.21
   0   2  -9    0.89    1.12
  -2   0  -9    3.00    1.13
   2  -2  -9    4.41    1.15
   0  -2  -9    0.83    1.18
   0  -2  10    2.36    1.33
   2  -2  10    0.87    1.30
  -2   0  10    4.39    1.32
   2   0  10    2.41    1.29
  -2   2  10    1.17    1.28
   0   2  10    0.96    1.31
   0   2 -10    2.03    1.20
  -2   2 -10    0.22    0.74
   2   0 -10    0.56    0.74
  -2   0 -10    2.84    1.25
   0  -2 -10    1.87    0.76
   2  -2 -10    3.56    1.25
   0  -2  11    3.12    1.69
  -2   0  11    2.98    1.01
   0   2  11    6.41    1.69
   0   2 -11    6.51    1.55
  -2   2 -11    6.14    1.55
   2  -2 -11    8.90    1.56
   0  -2 -11    3.09    1.63
   0  -2  12    0.77    1.86
   2  -2  12    6.74    1.83
  -2   0  12    7.09    1.84
   2   0  12    3.80    1.11
  -2   2  12    7.90    1.86
   0   2 -12    2.94    1.70
   2   0 -12    8.69    1.66
  -2   2 -12    5.78    1.70
  -2   0 -12   10.01    1.73
   2  -2 -12    7.38    1.73
   0  -2  13    1.91    1.72
   2  -2  13    1.48    1.07
  -2   0  13    2.37    1.75
   2   0  13    3.64    1.76
   0   2  13    0.30    1.74
  -2   2  13    1.66    1.07
   0   2 -13    0.89    0.98
  -2   2 -13    1.21    1.61
   2   0 -13    2.44    1.58
  -2   0 -13    2.69    1.62
   2  -2 -13    1.97    1.63
   0  -2 -13    2.49    1.65
   0  -2  14   -0.72    1.90
   2  -2  14    4.22    1.92
  -2   0  14    4.48    1.93
  -2   2  14    0.47    1.93
   2   0  14    2.94    1.87
   0   2  14    1.10    1.90
  -2   2 -14    1.22    1.76
   0   2 -14    1.41    1.73
   2   0 -14    3.03    1.77
  -2   0 -14    1.52    1.07
   0  -2 -14    0.07    1.10
   2  -2 -14    1.45    1.85
  -1  -2   0    5.47    0.36
  -2  -1   0    6.72    0.54
   1   2   0    5.40    0.42
   2   1   0    7.08    0.55
  -3   2   0    6.21    0.56
   3  -1   0    5.72    0.61
  -1   3   0    6.82    0.62
   1   2   0    5.93    0.49
  -2   3   0    6.73    0.56
  -1  -2   0    5.61    0.45
   1  -3   0    5.18    0.36
   3  -2   0    6.31    0.42
  -2  -1   0    5.10    0.30
  -2  -1   1    6.66    0.70
  -3   1   1    7.55    0.77
  -3   2   1    7.02    0.67
   1  -3   1    6.74    0.70
   2  -3   1    7.12    0.66
  -1  -2   1    6.33    0.60
  -2  -1   1    7.00    0.60
   3  -2   1    6.09    0.45
   3  -1   1    6.33    0.52
  -3   1   1    6.19    0.49
  -3   2   1    6.36    0.48
   2   1   1    6.57    0.50
   1   2  -1    6.99    0.58
   2  -3  -1    6.37    0.49
   2   1  -1    6.76    0.69
   3  -1  -1    7.79    0.75
   3  -2  -1    7.11    0.66
  -2   3  -1    6.61    0.66
   1   2  -1    6.59    0.60
  -1   3  -1    6.96    0.71
   2   1  -1    6.23    0.46
  -3   2  -1    6.47    0.60
  -3   1  -1    6.39    0.36
   3  -1  -1    6.39    0.49
  -2  -1  -1    6.93    0.62
   3  -2  -1    6.15    0.47
  -1  -2  -1    6.67    0.63
   2  -3  -1    7.42    0.68
   1  -3  -1    5.68    0.44
   1  -3   2   19.59    0.64
   2  -3   2   21.55    0.97
  -1  -2   2   20.41    0.91
   3  -2   2   21.37    0.85
  -2  -1   2   20.68    0.84
   3  -1   2   20.40    0.83
  -3   1   2   20.56    1.07
   2   1   2   19.69    0.85
  -3   2   2   20.29    0.83
   1   2   2   19.94    0.94
  -1   3   2   22.10    1.11
  -2   3   2   21.27    1.03
   2   1  -2   20.89    0.99
   3  -2  -2   20.71    0.90
   3  -1  -2   21.03    0.99
  -1   3  -2   19.89    0.63
  -2   3  -2   21.94    0.96
   1   2  -2   20.87    0.92
   2   1  -2   20.43    0.82
  -3   2  -2   21.37    0.84
  -3   1  -2   21.44    0.81
   3  -1  -2   21.60    0.80
  -2  -1  -2   22.42    0.89
   3  -2  -2   21.34    0.88
  -1  -2  -2   22.25    0.97
   1  -3  -2   22.09    1.07
   2  -3  -2   21.06    1.04
   2  -3   3    5.58    0.62
   1  -3   3    5.87    0.62
  -1  -2   3    5.72    0.59
  -2  -1   3    5.72    0.59
   3  -2   3    6.43    0.59
   3  -1   3    5.82    0.56
  -3   1   3    5.85    0.57
  -3   2   3    6.82    0.59
   2   1   3    5.52    0.60
   1   2   3    5.87    0.62
  -2   3   3    5.90    0.65
  -1   3   3    6.30    0.65
  -1   3  -3    6.51    0.40
  -2   3  -3    5.82    0.62
   1   2  -3    5.70    0.37
   2   1  -3    6.48    0.57
  -3   2  -3    5.94    0.36
  -3   1  -3    6.33    0.58
   3  -1  -3    6.24    0.57
  -2  -1  -3    6.42    0.60
   3  -2  -3    5.49    0.58
  -1  -2  -3    6.46    0.64
   2  -3  -3    5.97    0.65
   1  -3  -3    6.54    0.67
   1  -3   4    5.02    0.74
  -1  -2   4    5.26    0.72
   2  -3   4    5.62    0.72
   3  -2   4    6.50    0.71
  -2  -1   4    6.09    0.45
   3  -1   4    5.94    0.69
  -3   1   4    6.33    0.70
  -3   2   4    6.65    0.71
   2   1   4    6.54    0.71
   1   2   4    5.40    0.72
  -2   3   4    6.99    0.74
  -1   3   4    5.52    0.74
  -2   3  -4    6.26    0.72
  -1   3  -4    6.35    0.74
   1   2  -4    6.29    0.45
   2   1  -4    6.08    0.68
  -3   2  -4    6.60    0.71
  -3   1  -4    6.68    0.71
   3  -1  -4    6.66    0.43
  -2  -1  -4    6.18    0.70
   3  -2  -4    5.75    0.68
   2  -3  -4    6.23    0.74
  -1  -2  -4    6.45    0.75
   1  -3  -4    6.43    0.78
   1  -3   5    8.01    1.01
   2  -3   5    8.22    0.63
  -1  -2   5    6.96    0.99
   3  -2   5    8.01    0.61
  -2  -1   5    7.57    0.98
   3  -1   5    9.14    0.97
  -3   1   5   10.57    0.99
  -3   2   5    9.22    0.98
   2   1   5    8.91    0.97
  -2   3   5    6.98    0.98
   1   2   5    5.44    1.03
  -1   3   5    7.24    1.01
  -1   3  -5    7.27    0.98
   1   2  -5    8.28    0.96
  -2   3  -5    9.49    0.60
   2   1  -5    9.46    0.94
  -3   2  -5    8.95    0.96
  -3   1  -5    9.21    0.96
   3  -1  -5   10.85    0.93
  -2  -1  -5    8.46    0.99
   3  -2  -5    8.28    0.96
  -1  -2  -5    9.55    1.01
   2  -3  -5    8.35    1.00
   1  -3  -5    5.92    1.03
   2  -3   6    3.14    0.55
  -1  -2   6    4.08    0.86
   1  -3   6    2.37    0.89
   3  -2   6    2.97    0.87
  -2  -1   6    3.87    0.86
  -3   1   6    4.83    0.87
  -3   2   6    4.36    0.90
   2   1   6    2.91    0.87
   1   2   6    4.73    0.86
  -2   3   6    4.09    0.55
  -1   3   6    2.62    0.89
  -2   3  -6    4.02    0.86
  -1   3  -6    3.79    0.53
   1   2  -6    4.24    0.83
   2   1  -6    2.90    0.83
  -3   2  -6    6.50    0.89
  -3   1  -6    6.22    0.86
   3  -1  -6    4.00    0.82
   3  -2  -6    4.58    0.86
  -2  -1  -6    3.89    0.87
  -1  -2  -6    3.11    0.87
   2  -3  -6    2.24    0.87
   1  -3  -6    3.12    0.90
   2  -3   7   -0.20    0.88
  -2  -1   7    1.60    0.87
   3  -2   7    0.95    0.87
   3  -1   7    0.99    0.90
  -3   1   7    1.53    0.88
  -3   2   7    1.81    0.90
   2   1   7    1.90    0.88
   1   2   7    1.08    0.91
  -1   3   7    1.67    0.55
  -2   3   7    1.28    0.90
  -1   3  -7    3.34    0.92
  -2   3  -7   -0.05    0.87
   1   2  -7    1.79    0.84
  -3   2  -7    2.16    0.86
   2   1  -7    1.75    0.84
  -3   1  -7    1.78    0.53
   3  -1  -7    2.43    0.83
   3  -2  -7    2.02    0.52
  -2  -1  -7   -0.22    0.88
   2  -3  -7    1.88    0.89
  -1  -2  -7    1.54    0.54
   1  -3  -7    3.39    0.92
   2  -3   8    1.10    0.99
  -1  -2   8   -0.11    0.99
  -2  -1   8    1.16    1.03
   3  -1   8    2.42    0.97
  -3   2   8    2.80    1.05
   1   2   8    0.71    1.05
   2   1   8    1.74    1.02
  -2   3   8   -0.02    1.05
  -1   3   8    0.64    0.61
  -1   3  -8   -1.33    1.03
  -2   3  -8    1.10    0.94
   1   2  -8    2.26    0.95
   2   1  -8    3.33    0.95
   3  -1  -8    3.84    0.93
  -1  -2  -8    0.45    1.03
  -2  -1  -8    1.41    0.97
   2  -3  -8    0.57    1.03
   1  -3  -8    0.81    0.62
   2  -3   9    1.79    1.16
   1  -3   9    0.47    0.72
  -2  -1   9    1.79    1.17
   3  -2   9    1.89    1.18
   3  -1   9    3.66    1.14
  -3   1   9    0.85    0.73
  -3   2   9    1.69    1.18
   2   1   9    2.52    1.15
  -2   3   9    0.61    1.21
  -1   3   9    1.07    1.16
  -2   3  -9    0.90    1.13
  -3   2  -9    0.54    1.11
   2   1  -9    1.52    1.04
   1   2  -9    0.85    1.10
  -3   1  -9    4.09    1.10
   3  -1  -9    1.74    0.64
   3  -2  -9    2.64    1.10
  -2  -1  -9    0.54    0.68
   1  -3  -9   -2.16    1.20
   2  -3  -9   -0.17    1.15
  -1  -2  10    0.90    1.33
   2  -3  10   -0.41    1.32
   1  -3  10    0.38    1.31
  -2  -1  10    0.85    1.30
   3  -2  10    4.26    1.29
   3  -1  10    3.27    1.29
  -3   1  10    2.92    1.33
   2   1  10    1.11    1.29
  -3   2  10    1.74    1.32
  -2   3  10    1.10    0.78
  -1   3  10    0.11    1.32
   1   2  10    1.48    1.28
   1   2 -10    2.06    1.20
  -1   3 -10    0.91    0.74
  -2   3 -10    0.63    1.21
  -3   2 -10    2.24    1.20
   2   1 -10    0.40    1.15
  -3   1 -10    0.81    0.75
   3  -1 -10    4.53    1.19
   3  -2 -10    2.98    1.23
  -2  -1 -10    0.37    1.24
  -1  -2 -10    1.75    1.25
   2  -3 -10   -0.61    1.27
   1  -3 -10   -0.64    1.29
   2  -3  11   -0.13    1.65
   1  -3  11    8.18    1.72
  -2  -1  11    3.13    1.59
   3  -2  11    3.38    1.60
  -1  -2  11    7.86    1.66
  -3   1  11    5.98    1.64
  -3   2  11    7.21    1.65
   2   1  11    2.48    1.59
  -2   3  11    2.61    1.60
  -1   3  11    7.74    1.66
   1   2  11    4.71    0.95
  -1   3 -11    0.97    1.45
  -2   3 -11    2.22    0.93
   2   1 -11    3.60    1.44
  -3   2 -11    2.97    1.51
  -3   1 -11    6.93    1.49
   3  -1 -11    3.69    1.44
   3  -2 -11    2.35    0.88
   1  -3 -11   -0.29    1.56
  -1  -2  12    3.91    1.70
   2  -3  12   -0.68    1.63
   1  -3  12   -0.30    1.70
   3  -1  12    4.37    1.69
   3  -2  12    4.95    1.69
  -2  -1  12    5.20    1.63
  -3   1  12    2.21    1.00
  -2   3  12    1.20    1.73
   2   1  12    4.30    1.63
  -3   2  12    4.41    1.68
   1   2  12    0.67    1.61
  -1   3  12    2.10    1.73
  -2   3 -12    2.76    1.55
   1   2 -12    2.39    0.94
  -1   3 -12    4.80    1.56
   2   1 -12    4.15    1.53
  -3   1 -12    5.81    1.54
  -3   2 -12    4.06    1.58
   3  -2 -12    4.98    1.55
   3  -1 -12    5.83    1.50
   2  -3 -12    0.41    1.58
  -1  -2 -12    3.30    1.59
  -2  -1 -12    1.90    1.56
   1  -3 -12   -1.66    1.64
   2  -3  13    0.77    1.62
   1  -3  13   -0.78    1.68
  -1  -2  13   -0.53    1.64
   3  -2  13    1.66    1.66
  -2  -1  13    2.28    1.66
   3  -1  13    1.30    1.64
  -3   1  13    3.32    1.69
  -3   2  13   -0.32    1.03
   2   1  13   -0.31    1.01
  -2   3  13    1.75    1.68
   1   2  13   -1.93    1.65
  -1   3  13   -0.16    1.71
  -1   3 -13    2.68    1.57
   1   2 -13    1.03    1.54
   2   1 -13    1.78    1.51
  -3   2 -13    1.37    1.55
  -2   3 -13    1.59    1.53
  -3   1 -13    1.48    1.56
   3  -1 -13    3.59    1.51
  -2  -1 -13   -0.64    1.58
   3  -2 -13   -0.20    0.96
   2  -3 -13    1.37    1.58
   1  -3 -13    2.15    0.97
  -1  -2 -13    0.90    1.60
   2  -3  14    1.95    1.21
  -1  -2  14    1.31    1.93
   1  -3  14    3.83    1.92
   3  -1  14    1.15    1.93
   3  -2  14    2.69    1.88
  -2  -1  14    0.07    1.95
  -3   2  14    2.05    1.91
   2   1  14   -1.87    1.94
  -3   1  14   -1.15    1.91
  -2   3  14    2.00    1.16
  -1   3  14    3.69    1.85
   1   2  14    3.37    1.94
   1   2 -14    4.56    1.73
  -2   3 -14    1.77    1.77
  -1   3 -14    0.48    1.77
  -3   2 -14    1.97    1.09
   2   1 -14    2.83    1.73
   3  -1 -14   -0.21    1.09
  -3   1 -14   -0.15    1.76
   3  -2 -14    1.81    1.78
   1  -3 -14    1.69    1.85
  -1  -2 -14    0.26    1.78
   2  -3 -14    3.91    1.81
  -2  -1 -14    2.14    1.81
  -2  -2   0  195.72    4.89
  -4   2   0  198.56    5.52
   2   2   0  199.46    5.09
  -2   4   0  205.38    5.60
   2  -4   0  199.38    5.41
  -2  -2   0  190.83    4.51
   4  -2   0  198.77    4.33
  -2  -2   1   10.31    0.67
  -4   2   1    9.36    0.81
   2  -4   1    9.82    0.77
  -2  -2   1   10.31    0.55
   4  -2   1    9.90    0.51
  -4   2   1   10.62    0.41
   2   2  -1   10.64    0.69
   2  -4  -1   10.13    0.42
   4  -2  -1    9.90    0.81
  -2   4  -1   10.97    0.80
   2   2  -1   10.30    0.58
  -4   2  -1    9.95    0.49
   4  -2  -1    9.99    0.52
  -2  -2  -1   10.01    0.58
  -4   2   2   31.01    0.74
   2  -4   2   30.05    1.00
  -2  -2   2   29.03    0.86
   4  -2   2   29.88    0.79
  -4   2   2   29.83    0.77
   2   2   2   30.49    0.96
  -2   4   2   28.74    1.06
   2   2  -2   30.54    0.97
   4  -2  -2   30.27    0.98
  -2   4  -2   30.57    1.02
   2   2  -2   30.27    0.87
  -4   2  -2   31.02    0.79
   4  -2  -2   30.66    0.79
  -2  -2  -2   29.74    0.90
   2  -4  -2   31.58    1.08
   2  -4   3    1.50    0.53
  -2  -2   3    1.41    0.47
   4  -2   3    1.65    0.62
  -4   2   3    1.80    0.47
   2   2   3    1.38    0.50
  -2   4   3    0.86    0.59
   4  -2  -3    1.82    0.51
  -2   4  -3    2.00    0.54
   2   2  -3    1.34    0.48
  -4   2  -3    1.97    0.44
   4  -2  -3    1.67    0.43
  -2  -2  -3    2.79    0.50
   2  -4  -3    2.32    0.56
   2  -4   4   39.71    1.46
  -2  -2   4   40.80    1.44
   4  -2   4   41.70    1.42
  -4   2   4   40.52    1.43
   2   2   4   40.24    1.42
  -2   4   4   40.19    1.50
   4  -2  -4   39.92    1.39
  -2   4  -4   42.42    1.50
   2   2  -4   41.37    1.39
  -4   2  -4   43.28    1.43
   4  -2  -4   40.94    1.36
  -2  -2  -4   40.90    1.08
   2  -4  -4   41.26    1.11
   2  -4   5   56.24    2.09
  -2  -2   5   56.23    2.11
   4  -2   5   57.93    2.07
  -4   2   5   60.77    2.16
   2   2   5   57.13    2.05
  -2   4   5   56.42    2.11
  -2   4  -5   59.09    2.12
   2   2  -5   57.69    1.53
  -4   2  -5   60.62    1.61
   4  -2  -5   57.12    2.05
  -2  -2  -5   60.08    2.16
   2  -4  -5   59.18    2.17
   2  -4   6   22.11    1.34
  -2  -2   6   21.56    1.32
   4  -2   6   22.47    1.28
  -4   2   6   23.31    1.34
   2   2   6   21.95    0.89
  -2   4   6   21.82    1.35
  -2   4  -6   22.91    0.91
   2   2  -6   22.82    1.24
  -4   2  -6   20.98    0.86
   4  -2  -6   23.44    1.27
  -2  -2  -6   24.08    1.29
   2  -4  -6   22.50    1.38
   2  -4   7    7.65    1.11
  -2  -2   7    8.58    1.09
   4  -2   7    7.06    1.06
  -4   2   7    8.86    1.13
   2   2   7    8.16    1.06
  -2   4   7    7.54    0.68
  -2   4  -7    8.29    1.07
   2   2  -7    8.02    1.02
  -4   2  -7    8.70    1.05
   4  -2  -7    8.32    1.03
  -2  -2  -7    7.81    1.07
   2  -4  -7    8.08    1.07
   2  -4   8    6.11    1.17
  -2  -2   8    5.26    1.16
   4  -2   8    6.84    1.16
  -4   2   8    6.95    1.20
   2   2   8    6.59    1.17
  -2   4   8    7.68    1.20
  -2   4  -8    4.13    1.13
   2   2  -8    5.29    1.11
  -4   2  -8    5.58    1.14
   4  -2  -8    6.36    1.11
  -2  -2  -8    7.33    1.16
   2  -4  -8    5.63    1.17
   2  -4   9    6.54    1.38
  -2  -2   9    6.52    1.32
   4  -2   9    6.83    1.34
  -4   2   9    6.45    1.39
   2   2   9    5.03    1.34
  -2   4   9    5.98    1.41
  -2   4  -9    3.88    1.34
   2   2  -9    5.29    1.26
  -4   2  -9    6.41    1.32
   4  -2  -9    6.94    1.28
  -2  -2  -9    5.73    1.36
   2  -4  -9    8.27    1.37
   2  -4  10    4.86    0.91
  -2  -2  10    3.97    0.91
   4  -2  10    5.21    1.43
  -4   2  10    5.71    0.93
   2   2  10    4.43    0.90
  -2   4  10    4.97    1.47
  -2   4 -10    6.95    1.37
   2   2 -10    5.60    1.36
  -4   2 -10    7.20    1.38
   4  -2 -10    5.28    1.34
  -2  -2 -10    5.46    1.41
   2  -4 -10    5.30    1.43
   2  -4  11   10.61    1.93
  -2  -2  11   12.28    1.90
   4  -2  11   10.38    1.87
  -4   2  11   11.85    1.94
   2   2  11   10.64    1.92
  -2   4  11   13.08    1.24
  -2   4 -11   12.10    1.83
   2   2 -11   11.98    1.12
  -4   2 -11   12.56    1.14
   4  -2 -11   13.15    1.80
  -2  -2 -11   10.28    1.86
   2  -4 -11    9.49    1.87
   2  -4  12    1.01    1.77
  -2  -2  12    6.21    1.79
   4  -2  12    6.17    1.10
   2   2  12    5.55    1.74
  -4   2  12    6.52    1.77
  -2   4  12    5.61    1.77
  -2   4 -12    1.86    1.67
   2   2 -12    5.12    1.62
  -4   2 -12    5.88    1.66
   4  -2 -12    6.36    1.60
  -2  -2 -12    3.54    1.70
   2  -4 -12    5.08    1.08
   2  -4  13    0.88    1.70
   4  -2  13    2.24    1.69
  -2  -2  13    0.80    1.73
  -4   2  13    1.57    1.06
  -2   4  13   -0.05    1.73
   2   2  13    0.12    1.69
  -2   4 -13    1.62    1.58
  -4   2 -13    0.54    1.61
   2   2 -13    1.76    1.57
   4  -2 -13    4.75    1.58
   2  -4 -13    1.81    1.63
  -2  -2 -13    1.45    1.64
   2  -4  14    0.10    1.96
  -2  -2  14    3.17    1.91
   4  -2  14    2.15    1.90
  -4   2  14    2.08    1.95
   2   2  14    0.06    1.18
  -2   4  14    0.39    1.99
  -2   4 -14    1.68    1.79
   2   2 -14    3.05    1.69
  -4   2 -14    1.82    1.09
   4  -2 -14    1.32    1.76
  -2  -2 -14    2.08    1.78
   2  -4 -14    0.45    1.84
   0  -3   0 1380.18   76.34
   0   3   0 1408.86   78.52
  -3   0   0 1341.08   79.30
   3   0   0 1380.39   81.37
  -3   3   0 1371.14   78.41
   0   3   0 1377.91   81.00
  -3   3   0 1380.03   79.11
   0  -3   0 1297.21   74.18
   3  -3   0 1383.94   79.40
  -3   0   0 1363.45   74.25
  -3   3   1    1.23    0.48
  -3   0   1    1.40    0.70
   0  -3   1    0.99    0.34
   3  -3   1    1.18    0.50
  -3   0   1    1.10    0.42
   3   0   1    1.17    0.41
   3  -3  -1    1.12    0.46
   3   0  -1    0.73    0.69
   0   3  -1    0.90    0.36
  -3   3  -1    1.76    0.50
   3   0  -1    1.21    0.38
  -3   0  -1    0.85    0.42
   3  -3  -1    1.06    0.73
  -3   0   2   11.11    0.48
   0  -3   2   11.60    0.73
   3  -3   2   11.73    0.65
  -3   0   2   11.70    0.78
   3   0   2   11.47    0.57
  -3   3   2   12.13    0.71
   0   3   2   12.31    0.79
   3  -3  -2   11.41    0.59
   3   0  -2   11.48    0.76
   0   3  -2   12.31    0.75
  -3   3  -2   11.52    0.65
   3   0  -2   12.17    0.55
  -3   0  -2   11.46    0.58
   3  -3  -2   12.04    0.43
   0  -3  -2   11.58    0.76
   0  -3   3    0.57    0.50
   3  -3   3    0.84    0.47
  -3   0   3    0.65    0.45
   3   0   3    1.43    0.44
  -3   3   3    0.49    0.48
   0   3   3    0.88    0.51
   3   0  -3    1.09    0.50
   0   3  -3    0.63    0.49
  -3   3  -3    0.05    0.47
   3   0  -3    0.50    0.43
  -3   0  -3    0.50    0.45
   3  -3  -3    0.84    0.49
   0  -3  -3    1.37    0.32
   0  -3   4   61.57    1.92
   3  -3   4   61.44    1.89
  -3   0   4   66.62    1.93
   3   0   4   64.37    1.92
  -3   3   4   61.87    1.92
   0   3   4   63.96    1.97
   0   3  -4   63.24    1.93
  -3   3  -4   63.81    1.91
   3   0  -4   64.20    1.85
  -3   0  -4   66.92    1.97
   3  -3  -4   63.46    1.47
   0  -3  -4   65.69    2.02
   0  -3   5   12.59    1.09
   3  -3   5   14.15    1.07
  -3   0   5   15.88    1.08
   3   0   5   15.14    1.06
  -3   3   5   13.65    0.71
   0   3   5   13.42    1.09
   0   3  -5   13.59    1.05
  -3   3  -5   14.59    1.09
   3   0  -5   16.02    1.01
  -3   0  -5   15.23    0.71
   3  -3  -5   12.44    1.10
   0  -3  -5   13.63    1.13
   0  -3   6   32.86    1.60
   3  -3   6   34.43    1.59
  -3   0   6   36.95    1.64
   3   0   6   33.30    1.62
  -3   3   6   32.13    1.60
   0   3   6   31.53    1.57
   0   3  -6   34.72    1.56
  -3   3  -6   34.35    1.59
   3   0  -6   34.29    1.53
  -3   0  -6   34.06    1.57
   3  -3  -6   32.81    1.56
   0  -3  -6   34.86    1.62
   0  -3   7    4.98    1.00
   3  -3   7    4.85    1.00
  -3   0   7    6.45    1.00
   3   0   7    5.72    0.99
   0   3   7    5.24    1.00
  -3   3   7    4.81    0.99
   0   3  -7    5.35    0.61
  -3   3  -7    4.87    0.97
   3   0  -7    5.82    0.91
  -3   0  -7    5.78    0.98
   3  -3  -7    5.21    0.99
   0  -3  -7    5.63    1.01
   0  -3   8   26.58    1.87
   3  -3   8   27.26    1.79
  -3   0   8   28.01    1.81
   3   0   8   26.39    1.23
  -3   3   8   27.10    1.86
   0   3   8   26.75    1.83
   0   3  -8   27.82    1.16
  -3   3  -8   26.68    1.72
   3   0  -8   28.37    1.70
  -3   0  -8   27.92    1.76
   3  -3  -8   24.38    1.76
   0  -3  -8   29.90    1.82
   0  -3   9    4.52    1.34
   3  -3   9    5.53    1.32
  -3   0   9    6.17    0.86
   3   0   9    6.16    1.34
   0   3   9    5.31    1.33
  -3   3   9    5.20    1.37
   0   3  -9    6.03    0.78
  -3   3  -9    4.98    1.28
   3   0  -9    5.39    0.76
  -3   0  -9    6.75    1.27
   3  -3  -9    7.02    1.33
   0  -3  -9    4.97    1.31
   0  -3  10    7.56    1.58
   3  -3  10    8.34    1.01
  -3   0  10    9.02    1.60
   3   0  10    7.62    1.56
  -3   3  10    8.39    1.02
   0   3  10    8.71    1.62
   0   3 -10    9.72    1.48
  -3   3 -10    9.22    1.52
   3   0 -10    8.60    1.44
  -3   0 -10    9.06    1.52
   3  -3 -10    8.80    1.54
   0  -3 -10    9.11    1.59
   0  -3  11   11.21    1.23
   3  -3  11    9.99    1.87
  -3   0  11   14.46    1.94
   3   0  11   12.30    1.95
  -3   3  11   10.68    1.92
   0   3  11   10.52    1.91
   0   3 -11   12.98    1.79
  -3   3 -11   10.22    1.85
   3   0 -11   12.42    1.73
  -3   0 -11   12.37    1.82
   0  -3 -11   12.26    1.86
   3  -3 -11   10.78    1.89
   0  -3  12    8.82    1.96
   3  -3  12    7.20    1.99
  -3   0  12   10.82    1.96
   3   0  12    9.92    1.94
  -3   3  12    8.98    1.97
   0   3  12    7.37    1.96
   0   3 -12    7.82    1.79
  -3   3 -12   10.39    1.86
   3   0 -12   10.09    1.10
  -3   0 -12    7.64    1.18
   3  -3 -12    8.57    1.83
   0  -3 -12    6.73    1.89
   0  -3  13    0.10    1.76
   3  -3  13    3.81    1.77
  -3   0  13    3.36    1.79
   3   0  13    2.39    1.74
   0   3  13    2.45    1.09
  -3   3  13    2.07    1.77
   0   3 -13    0.47    1.68
  -3   3 -13    2.69    1.66
   3   0 -13    3.94    1.61
  -3   0 -13    4.38    1.70
   3  -3 -13    1.84    1.70
   0  -3 -13    1.89    1.70
   3  -3  14    2.43    2.03
   0  -3  14    4.55    2.00
  -3   0  14    3.52    2.05
   3   0  14    1.81    1.23
  -3   3  14    0.27    2.04
   0   3  14    1.89    2.01
  -3   3 -14    2.28    1.85
   0   3 -14    4.78    1.12
   3   0 -14    3.17    1.83
  -3   0 -14    4.73    1.87
   3  -3 -14    3.10    1.90
   0  -3 -14    3.26    1.90
  -1  -3   0   92.86    2.11
  -3  -1   0   94.24    2.46
  -4   3   0   89.40    2.30
   1   3   0   92.03    2.19
  -4   1   0   95.98    2.65
   3   1   0   90.75    2.45
   4  -1   0   91.72    2.54
  -3   4   0   89.45    2.32
  -1   4   0   95.99    2.59
   3  -4   0   93.43    2.34
  -1  -3   0   88.60    2.19
   1  -4   0   91.40    2.47
  -3  -1   0   85.01    1.77
   4  -3   0   94.95    2.18
  -3   4   1    1.32    0.42
  -3  -1   1    1.67    0.59
  -4   3   1    2.00    0.52
  -4   1   1    2.03    0.63
   1  -4   1    1.30    0.58
   3  -4   1    1.98    0.52
  -1  -3   1    2.08    0.49
   4  -3   1    1.47    0.35
  -3  -1   1    1.50    0.39
   4  -1   1    0.95    0.30
  -4   1   1    1.38    0.31
   1   3  -1    1.39    0.41
   3   1  -1    1.64    0.59
   4  -3  -1    2.19    0.51
   3  -4  -1    1.44    0.30
   4  -1  -1    2.64    0.63
  -3   4  -1    1.99    0.53
  -1   4  -1    1.58    0.36
  -4   3  -1    1.08    0.50
   3   1  -1    1.71    0.42
  -4   1  -1    1.38    0.30
   4  -1  -1    1.33    0.29
  -3  -1  -1    1.38    0.43
   4  -3  -1    1.52    0.55
  -3  -1   2   14.36    0.74
  -4   1   2   16.15    0.83
  -4   3   2   15.82    0.71
   1  -4   2   14.93    0.76
   3  -4   2   14.77    0.70
  -1  -3   2   14.62    0.68
   4  -3   2   14.38    0.59
  -3  -1   2   14.15    0.56
   4  -1   2   12.80    0.53
  -4   1   2   13.98    0.69
   3   1   2   13.05    0.58
  -4   3   2   13.73    0.61
   1   3   2   14.44    0.74
  -3   4   2   14.12    0.72
   3  -4  -2   14.45    0.51
   3   1  -2   14.17    0.77
   4  -1  -2   14.55    0.77
   4  -3  -2   14.13    0.66
  -1   4  -2   14.13    0.50
  -3   4  -2   15.88    0.74
   1   3  -2   15.98    0.72
  -4   3  -2   13.59    0.59
   3   1  -2   14.19    0.72
  -4   1  -2   14.62    0.55
   4  -1  -2   14.51    0.52
  -3  -1  -2   15.04    0.58
   4  -3  -2   14.19    0.61
  -1  -3  -2   15.36    0.73
   3  -4  -2   13.41    0.47
   1  -4  -2   15.44    0.83
   1  -4   3    5.61    0.38
  -1  -3   3    4.91    0.57
   3  -4   3    5.53    0.58
   4  -3   3    4.63    0.53
  -3  -1   3    5.22    0.52
   4  -1   3    5.20    0.51
  -4   1   3    5.00    0.51
   3   1   3    4.71    0.52
  -4   3   3    4.71    0.55
   1   3   3    4.63    0.60
  -3   4   3    4.78    0.63
  -1   4   3    5.45    0.69
   4  -3  -3    5.56    0.55
   3   1  -3    5.42    0.61
   4  -1  -3    5.04    0.60
  -1   4  -3    5.28    0.62
  -3   4  -3    4.78    0.59
   1   3  -3    5.15    0.58
  -4   3  -3    5.42    0.53
   3   1  -3    5.20    0.50
   4  -1  -3    5.25    0.49
  -4   1  -3    4.96    0.52
  -3  -1  -3    5.00    0.54
   4  -3  -3    5.38    0.55
   3  -4  -3    5.94    0.61
  -1  -3  -3    5.24    0.60
   1  -4  -3    5.66    0.65
   1  -4   4    6.84    0.50
  -1  -3   4    7.23    0.76
   3  -4   4    5.56    0.77
   4  -3   4    6.47    0.75
  -3  -1   4    6.60    0.75
   4  -1   4    7.01    0.72
  -4   1   4    6.49    0.73
   3   1   4    7.04    0.72
  -4   3   4    7.79    0.74
   1   3   4    6.57    0.80
  -3   4   4    6.59    0.81
  -1   4   4    7.50    0.81
   4  -1  -4    7.02    0.79
  -1   4  -4    7.56    0.80
  -3   4  -4    7.41    0.49
   1   3  -4    8.01    0.78
  -4   3  -4    7.40    0.74
   3   1  -4    7.16    0.70
   4  -1  -4    7.51    0.69
  -4   1  -4    7.50    0.73
  -3  -1  -4    8.02    0.74
   4  -3  -4    6.63    0.76
  -1  -3  -4    7.61    0.80
   3  -4  -4    6.89    0.82
   1  -4  -4    8.37    0.87
   1  -4   5   10.32    1.00
   3  -4   5    8.99    0.98
  -1  -3   5    9.98    0.97
   4  -3   5    9.73    0.63
  -3  -1   5   10.21    0.97
   4  -1   5    9.62    0.96
  -4   1   5   10.37    0.98
   3   1   5    9.58    0.94
  -4   3   5   12.76    1.01
   1   3   5   10.38    0.97
  -3   4   5    9.44    1.00
  -1   4   5   10.04    0.66
  -1   4  -5   11.59    1.01
   1   3  -5    9.24    0.95
  -3   4  -5   10.88    0.97
  -4   3  -5   10.80    0.96
   3   1  -5   10.31    0.90
   4  -1  -5   10.63    0.91
  -4   1  -5   11.42    0.96
   4  -3  -5   10.21    0.95
  -3  -1  -5   11.18    0.95
   3  -4  -5   12.09    1.00
  -1  -3  -5   10.47    0.64
   1  -4  -5    9.42    1.05
  -1  -3   6    2.81    0.81
   1  -4   6    2.25    0.83
   3  -4   6    0.68    0.84
   4  -3   6    2.54    0.79
  -3  -1   6    2.26    0.81
  -4   1   6    2.57    0.50
   4  -1   6    3.07    0.79
   3   1   6    1.07    0.50
  -4   3   6    1.59    0.82
   1   3   6    1.22    0.81
  -3   4   6    2.43    0.50
  -1   4   6    1.15    0.83
   1   3  -6    1.43    0.78
  -3   4  -6    1.06    0.82
  -1   4  -6    2.91    0.80
   3   1  -6    1.61    0.75
  -4   3  -6    2.42    0.79
  -4   1  -6    1.79    0.77
   4  -1  -6    3.52    0.74
   4  -3  -6    3.14    0.78
   3  -4  -6    2.50    0.83
  -1  -3  -6    1.49    0.84
   1  -4  -6    3.14    0.84
  -1  -3   7   -0.25    0.84
   3  -4   7   -1.18    0.84
   1  -4   7   -0.85    0.86
  -3  -1   7    0.01    0.83
   4  -3   7    0.36    0.82
   4  -1   7    1.78    0.83
   3   1   7    0.77    0.51
  -4   3   7    1.27    0.84
  -3   4   7    0.17    0.86
   1   3   7   -0.50    0.84
  -1   4   7    0.72    0.84
  -3   4  -7   -0.72    0.83
  -1   4  -7    0.48    0.51
   1   3  -7    0.03    0.82
   3   1  -7    1.47    0.77
  -4   3  -7    0.63    0.81
  -4   1  -7    0.85    0.49
  -3  -1  -7    1.02    0.83
   4  -3  -7   -0.20    0.82
  -1  -3  -7    0.93    0.51
   3  -4  -7    1.28    0.82
   1  -4  -7   -0.93    0.87
   1  -4   8    0.10    1.05
  -1  -3   8    0.94    0.64
   3  -4   8    1.61    1.03
   4  -3   8    2.41    1.00
  -3  -1   8    1.83    1.04
   4  -1   8    1.10    1.02
  -4   1   8    3.70    1.01
   3   1   8    2.05    1.02
  -4   3   8    1.41    1.03
   1   3   8    1.98    1.01
  -1   4   8    1.06    0.63
  -1   4  -8    1.19    0.98
   1   3  -8    1.58    0.97
  -3   4  -8    0.28    1.02
  -4   3  -8    0.92    0.98
   4  -1  -8    1.71    0.57
  -4   1  -8    3.39    0.99
  -3  -1  -8    3.64    1.08
   4  -3  -8    0.71    0.96
  -1  -3  -8    1.76    1.02
   3  -4  -8    0.13    1.03
   1  -4  -8    0.32    1.04
   1  -4   9    1.84    1.17
   3  -4   9   -0.35    1.11
  -1  -3   9   -1.62    1.13
  -3  -1   9    1.54    1.14
   4  -3   9   -0.32    1.11
  -4   1   9    1.54    1.16
   3   1   9   -0.04    1.14
  -4   3   9    2.82    1.17
  -1   4   9   -0.02    0.71
   1   3   9   -1.69    1.13
  -3   4   9   -0.56    1.16
  -1   4  -9    1.01    1.08
   1   3  -9   -0.39    1.06
  -3   4  -9    0.86    1.10
   3   1  -9    1.34    0.63
  -4   3  -9    1.67    1.07
  -4   1  -9    2.62    1.09
   4  -1  -9    2.10    1.02
  -3  -1  -9    0.41    1.11
   4  -3  -9    0.49    1.08
  -1  -3  -9   -0.52    1.13
   1  -4  -9   -1.59    1.16
   3  -4  -9    0.37    1.13
   3  -4  10   -0.77    1.24
   1  -4  10    0.63    1.23
  -1  -3  10    0.50    1.21
   4  -3  10   -0.12    1.25
  -3  -1  10   -0.89    1.23
  -4   1  10    3.71    1.24
   4  -1  10    0.57    0.76
   3   1  10    0.18    1.27
  -4   3  10    0.78    1.24
   1   3  10   -0.52    1.22
  -3   4  10   -0.46    1.27
  -1   4  10    0.78    0.77
  -1   4 -10   -1.29    1.19
  -3   4 -10   -1.17    1.18
  -4   3 -10    1.51    1.19
   1   3 -10   -0.61    1.17
   3   1 -10    0.31    1.10
   4  -1 -10    0.85    1.12
  -4   1 -10    0.99    0.71
  -3  -1 -10    2.56    1.23
   4  -3 -10   -0.12    0.72
   1  -4 -10   -2.12    1.21
  -1  -3 -10    1.05    1.21
   3  -4 -10    0.76    0.75
   3  -4  11   -0.63    1.50
   1  -4  11   -0.46    1.49
  -1  -3  11    2.04    0.90
  -3  -1  11    3.03    1.51
   4  -3  11    2.44    1.48
   4  -1  11    5.44    1.49
  -4   1  11    4.30    1.51
   3   1  11    5.65    1.50
  -4   3  11    1.49    0.91
  -3   4  11   -1.12    1.54
   1   3  11    0.56    1.45
  -1   4  11   -0.43    1.50
  -3   4 -11    0.37    1.44
  -1   4 -11    2.29    1.37
   1   3 -11   -0.66    1.36
   3   1 -11    4.04    1.36
   4  -1 -11    3.81    1.35
  -3  -1 -11    2.01    1.39
   4  -3 -11    4.18    1.43
  -1  -3 -11   -2.33    1.43
   3  -4 -11   -0.11    1.45
   1  -4 -11   -0.14    1.48
   1  -4  12   -2.20    1.61
   3  -4  12    1.22    1.59
  -1  -3  12   -0.23    1.57
   4  -3  12   -0.13    1.58
  -3  -1  12    3.67    1.57
   4  -1  12    5.10    1.57
  -4   1  12    1.73    0.97
   3   1  12    0.96    0.96
  -4   3  12    2.57    1.61
  -3   4  12    1.85    1.57
   1   3  12    1.04    0.95
  -1   4  12    1.08    1.59
  -1   4 -12   -0.32    0.93
  -3   4 -12    0.05    1.49
   1   3 -12   -1.38    1.45
  -4   3 -12    1.22    0.89
   3   1 -12    4.96    1.45
  -4   1 -12    4.87    1.48
   4  -1 -12    5.58    1.44
   4  -3 -12    1.06    1.47
  -3  -1 -12    3.52    1.51
   1  -4 -12   -1.68    1.56
  -1  -3 -12   -0.46    1.53
   3  -4 -12    0.04    1.55
  -1  -3  13   -0.50    1.69
   3  -4  13    0.11    1.05
   1  -4  13    1.91    1.73
  -3  -1  13    4.08    1.71
   4  -3  13    1.05    1.72
   4  -1  13    3.16    1.69
  -4   1  13    4.57    1.72
   3   1  13    2.65    1.68
   1   3  13    2.02    1.70
  -4   3  13    2.14    1.71
  -3   4  13   -1.32    1.74
  -1   4  13    3.32    1.74
   1   3 -13    1.29    0.94
  -1   4 -13   -0.70    1.58
  -3   4 -13    1.36    0.98
  -4   3 -13    2.19    1.63
   3   1 -13    1.09    0.96
  -4   1 -13    1.66    0.96
   4  -1 -13    0.69    1.54
  -3  -1 -13    3.64    1.60
   4  -3 -13    0.78    1.61
   3  -4 -13    1.06    1.61
  -1  -3 -13    1.81    1.65
   1  -4 -13   -0.32    1.67
   1  -4  14   -1.96    1.91
   3  -4  14    1.32    1.82
  -1  -3  14   -1.03    1.83
   4  -3  14   -0.26    1.83
  -3  -1  14    3.17    1.84
   4  -1  14    0.61    1.80
  -4   1  14    3.49    1.82
   3   1  14    1.51    1.80
  -4   3  14   -0.08    1.85
   1   3  14    2.28    1.80
  -1   4  14    0.20    1.87
  -3   4  14    2.32    1.84
  -1   4 -14   -0.90    1.73
  -3   4 -14    1.32    1.71
   1   3 -14   -1.15    1.66
  -4   3 -14    3.53    1.68
   3   1 -14    1.56    1.65
  -4   1 -14    0.74    1.73
   4  -1 -14   -0.70    1.71
  -3  -1 -14    2.01    1.74
   4  -3 -14   -0.95    1.03
  -1  -3 -14   -0.13    1.72
   1  -4 -14   -0.14    1.07
   3  -4 -14   -0.38    1.74
  -2  -3   0   77.03    1.75
  -3  -2   0   71.29    1.69
  -5   2   0   76.79    2.00
   2   3   0   70.81    1.57
   3   2   0   71.85    1.76
   2  -5   0   76.65    1.91
  -2  -3   0   69.94    1.48
   3  -5   0   76.01    1.87
  -3  -2   0   74.42    1.56
   5  -3   0   70.99    1.36
  -2  -3   1    6.00    0.45
  -3  -2   1    6.33    0.57
  -5   3   1    6.84    0.60
  -5   2   1    6.36    0.64
   2  -5   1    7.00    0.62
   3  -5   1    5.08    0.36
  -2  -3   1    5.34    0.46
  -3  -2   1    5.90    0.35
   5  -3   1    5.88    0.42
   5  -2   1    5.66    0.31
  -5   2   1    5.41    0.30
   2   3  -1    6.23    0.50
   3   2  -1    7.07    0.58
   5  -3  -1    7.40    0.60
   3  -5  -1    5.54    0.30
   5  -2  -1    7.29    0.65
  -2  -3  -1    5.51    0.38
  -3  -2  -1    5.99    0.49
  -2   5  -1    6.41    0.65
  -3   5  -1    6.42    0.62
   3   2  -1    6.07    0.40
   2   3  -1    6.63    0.50
  -5   3  -1    5.93    0.42
  -5   2  -1    5.43    0.29
   5  -2  -1    5.58    0.30
   5  -3  -1    5.59    0.31
  -3  -2  -1    6.13    0.38
  -3  -2   2    1.89    0.48
  -5   3   2    2.08    0.31
  -5   2   2    2.21    0.56
   2  -5   2    1.68    0.53
   3  -5   2    1.28    0.30
  -2  -3   2    1.40    0.44
  -3  -2   2    1.72    0.37
   5  -3   2    1.92    0.34
   5  -2   2    1.69    0.43
  -5   2   2    1.69    0.30
  -5   3   2    1.84    0.36
   3   2   2    1.82    0.41
   3  -5  -2    1.91    0.35
   2   3  -2    1.59    0.46
   3   2  -2    1.84    0.51
   5  -3  -2    1.96    0.50
   5  -2  -2    1.67    0.53
  -2   5  -2    2.57    0.54
  -3   5  -2    1.76    0.52
   2   3  -2    1.50    0.44
   3   2  -2    1.72    0.38
  -5   3  -2    1.77    0.45
  -5   2  -2    1.58    0.41
   5  -2  -2    1.79    0.40
   5  -3  -2    1.94    0.48
  -3  -2  -2    1.84    0.50
  -2  -3  -2    1.85    0.45
   3  -5  -2    1.67    0.56
   2  -5  -2    2.22    0.57
   3  -5   3    0.52    0.51
   2  -5   3   -0.10    0.54
  -2  -3   3    0.25    0.29
  -3  -2   3   -0.12    0.45
   5  -3   3    0.55    0.42
   5  -2   3   -0.55    0.57
  -5   2   3    0.06    0.56
  -5   3   3    0.11    0.43
   3   2   3    0.26    0.46
   2   3   3    0.38    0.32
  -2   5   3   -0.63    0.59
  -3   5   3    0.55    0.56
   2   3  -3    0.41    0.49
   3   2  -3    0.62    0.53
   5  -2  -3   -0.28    0.33
   5  -3  -3   -0.26    0.50
  -3   5  -3    0.57    0.54
  -2   5  -3    0.05    0.57
   2   3  -3    0.42    0.46
   3   2  -3    0.20    0.42
  -5   3  -3    0.42    0.57
  -5   2  -3    0.48    0.40
   5  -2  -3    0.21    0.40
   5  -3  -3    0.72    0.42
  -3  -2  -3    0.54    0.46
  -2  -3  -3    0.73    0.50
   2  -5  -3    0.26    0.59
   3  -5  -3    0.35    0.56
   3  -5   4    1.80    0.70
   2  -5   4    2.13    0.45
  -2  -3   4    2.92    0.66
  -3  -2   4    2.94    0.64
   5  -3   4    2.19    0.62
   5  -2   4    2.00    0.62
  -5   2   4    2.99    0.64
  -5   3   4    2.48    0.65
   3   2   4    2.32    0.65
   2   3   4    2.58    0.69
  -2   5   4    2.35    0.48
  -3   5   4    2.16    0.76
   3   2  -4    2.37    0.68
   5  -3  -4    1.54    0.69
   5  -2  -4    3.32    0.70
  -2   5  -4    2.43    0.72
  -3   5  -4    2.16    0.71
   2   3  -4    2.46    0.66
   3   2  -4    1.95    0.62
  -5   3  -4    2.07    0.62
  -5   2  -4    3.29    0.62
   5  -2  -4    2.68    0.60
   5  -3  -4    2.24    0.62
  -3  -2  -4    2.45    0.68
  -2  -3  -4    3.20    0.70
   3  -5  -4    2.51    0.74
   2  -5  -4    2.36    0.75
   3  -5   5    0.21    0.72
   2  -5   5    0.22    0.74
  -2  -3   5    0.48    0.70
  -3  -2   5    0.90    0.68
   5  -3   5    1.84    0.69
   5  -2   5    2.13    0.67
  -5   2   5    2.40    0.70
  -5   3   5    1.79    0.69
   3   2   5    0.19    0.69
   2   3   5   -0.02    0.71
  -2   5   5    0.48    0.76
  -3   5   5    1.02    0.75
   5  -3  -5    1.61    0.70
   5  -2  -5    0.53    0.72
  -3   5  -5    0.07    0.71
  -2   5  -5    1.20    0.73
   2   3  -5    2.00    0.69
   3   2  -5    1.06    0.66
  -5   3  -5    1.99    0.68
   5  -2  -5    1.20    0.66
   5  -3  -5    2.16    0.65
  -3  -2  -5    1.67    0.71
  -2  -3  -5    1.22    0.73
   3  -5  -5    0.33    0.78
   2  -5  -5    1.37    0.77
   3  -5   6   -0.55    0.74
   2  -5   6    0.63    0.74
  -2  -3   6   -1.29    0.73
  -3  -2   6   -0.05    0.73
   5  -3   6    0.62    0.71
   5  -2   6    0.91    0.71
  -5   2   6    0.82    0.73
   3   2   6    0.55    0.72
  -5   3   6   -0.52    0.73
   2   3   6    0.80    0.72
  -2   5   6    0.61    0.76
  -3   5   6    0.19    0.77
   5  -2  -6   -0.21    0.44
  -2   5  -6    0.72    0.76
  -3   5  -6   -0.40    0.45
   2   3  -6    0.04    0.70
   3   2  -6    0.75    0.68
  -5   3  -6    0.34    0.71
  -5   2  -6    0.41    0.42
   5  -2  -6    0.36    0.67
   5  -3  -6    0.59    0.69
  -3  -2  -6   -0.10    0.43
  -2  -3  -6    0.56    0.45
   2  -5  -6   -0.01    0.78
   3  -5  -6   -0.41    0.75
   3  -5   7    0.92    0.93
   2  -5   7    0.73    0.94
  -2  -3   7    2.25    0.91
  -3  -2   7    1.97    0.92
   5  -3   7    2.22    0.55
  -5   2   7    3.23    0.95
   3   2   7    1.34    0.90
  -5   3   7    2.41    0.93
   2   3   7    1.89    0.56
  -3   5   7    1.15    0.96
  -2   5   7    1.76    0.96
  -2   5  -7    0.80    0.94
  -3   5  -7    3.41    0.91
   2   3  -7    1.71    0.88
   3   2  -7    1.57    0.52
  -5   2  -7    2.73    0.89
   5  -2  -7    2.41    0.86
   5  -3  -7   -0.83    0.94
  -3  -2  -7    2.62    0.93
  -2  -3  -7    2.00    0.92
   2  -5  -7    1.56    0.97
   3  -5  -7    2.84    0.95
   3  -5   8    1.45    0.60
   2  -5   8   -0.02    0.99
  -2  -3   8    0.95    0.62
  -3  -2   8    0.61    0.97
   5  -3   8   -0.15    0.98
   5  -2   8    1.37    0.95
  -5   2   8    0.72    1.02
  -5   3   8    0.33    1.00
   3   2   8    0.43    0.99
   2   3   8   -0.84    1.00
  -2   5   8   -0.17    1.04
  -3   5   8    0.05    1.02
  -2   5  -8   -0.51    1.00
   2   3  -8    0.13    0.92
  -3   5  -8    0.23    1.00
   3   2  -8    0.85    0.58
  -5   3  -8    1.12    0.96
  -5   2  -8    1.20    0.95
   5  -2  -8    2.57    0.91
   5  -3  -8    1.16    0.94
  -2  -3  -8   -0.07    0.98
  -3  -2  -8    0.46    0.97
   3  -5  -8    0.10    0.99
   2  -5  -8    1.13    1.02
   3  -5   9    0.54    1.15
   2  -5   9   -2.09    1.19
  -3  -2   9    1.00    1.10
  -2  -3   9    0.33    1.13
   5  -3   9    0.79    1.12
  -5   3   9    1.87    1.19
   3   2   9   -0.18    1.13
   2   3   9   -0.20    1.13
  -3   5   9    0.83    1.16
  -2   5   9   -0.75    1.14
  -3   5  -9    0.63    1.10
  -2   5  -9    2.31    1.11
   2   3  -9   -0.48    1.06
   3   2  -9    0.47    0.63
  -5   3  -9    0.79    1.13
   5  -2  -9    2.23    1.03
   5  -3  -9    1.40    1.12
  -3  -2  -9    0.32    1.13
  -2  -3  -9   -0.74    1.16
   3  -5  -9    0.34    1.14
   2  -5  -9   -1.09    1.16
   2  -5  10   -0.50    1.23
  -2  -3  10   -0.76    1.19
   3  -5  10   -2.11    1.21
  -3  -2  10    1.32    0.74
   5  -2  10    0.03    1.22
   5  -3  10    1.75    1.20
   3   2  10   -2.15    1.22
  -5   3  10    1.93    1.24
   2   3  10    0.16    0.73
  -2   5  10   -1.58    1.28
  -3   5  10   -3.31    1.29
   2   3 -10   -1.68    1.11
  -2   5 -10   -1.28    1.18
  -3   5 -10   -0.87    1.17
   3   2 -10   -1.52    1.12
  -5   3 -10   -0.03    1.16
  -5   2 -10    2.05    1.15
   5  -3 -10   -0.81    1.14
  -3  -2 -10   -2.83    1.20
  -2  -3 -10    1.29    0.72
   3  -5 -10    0.03    1.26
   2  -5 -10    1.60    0.76
   3  -5  11    0.18    1.34
   2  -5  11    0.03    0.84
  -2  -3  11   -1.58    1.36
  -3  -2  11   -1.53    1.38
   5  -3  11    2.77    1.34
   5  -2  11    0.40    1.37
  -5   2  11    1.24    1.43
  -5   3  11    2.00    0.83
   2   3  11    1.16    0.83
   3   2  11   -1.04    1.34
  -3   5  11    0.08    1.42
  -2   5  11   -2.35    1.43
  -2   5 -11   -0.85    1.35
  -3   5 -11   -1.84    1.32
   2   3 -11   -3.00    1.29
  -5   3 -11    2.67    1.33
   3   2 -11    0.57    1.25
  -5   2 -11    1.31    0.79
   5  -2 -11    0.56    1.27
   5  -3 -11   -0.10    1.32
  -3  -2 -11   -1.79    1.35
  -2  -3 -11   -3.84    1.36
   2  -5 -11   -1.37    1.35
   3  -5 -11    0.26    1.32
   3  -5  12   -0.46    1.56
   2  -5  12    0.17    1.54
  -2  -3  12   -1.51    1.51
  -3  -2  12    1.05    1.50
   5  -3  12    1.38    1.51
   5  -2  12    1.92    1.53
  -5   3  12    0.86    1.56
  -5   2  12    1.86    1.57
   2   3  12    0.26    1.53
   3   2  12    1.69    1.50
  -2   5  12   -1.50    1.55
  -3   5  12    0.35    1.59
  -2   5 -12   -0.16    1.44
  -3   5 -12   -0.51    1.43
   2   3 -12    0.27    0.86
   3   2 -12    1.90    1.39
  -5   3 -12    1.30    0.89
  -5   2 -12    1.81    1.46
   5  -2 -12    1.67    1.43
   5  -3 -12    1.88    1.43
  -3  -2 -12   -1.06    1.45
   3  -5 -12   -0.59    1.48
  -2  -3 -12   -2.01    1.48
   2  -5 -12    0.33    1.52
   2  -5  13    0.27    1.66
   3  -5  13    0.87    1.65
  -2  -3  13    0.56    1.01
  -3  -2  13    1.65    1.66
   5  -3  13    4.45    1.62
   5  -2  13   -1.93    1.67
  -5   2  13    0.63    1.67
  -5   3  13    2.00    1.66
   2   3  13   -0.22    1.68
   3   2  13    1.01    1.02
  -3   5  13    1.15    1.07
  -2   5  13    0.39    1.04
  -2   5 -13   -2.38    1.58
  -3   5 -13   -1.72    1.60
   3   2 -13    1.48    1.52
   2   3 -13   -1.27    1.51
  -5   3 -13    1.45    1.58
  -5   2 -13    0.09    1.57
   5  -2 -13    2.08    1.54
   5  -3 -13    0.34    1.53
  -3  -2 -13   -0.45    1.57
  -2  -3 -13    3.15    1.58
   2  -5 -13    0.04    1.01
   3  -5 -13   -0.50    1.64
   3  -5  14    0.84    1.15
   2  -5  14   -2.42    1.84
  -3  -2  14   -0.37    1.84
  -2  -3  14   -1.73    1.83
   5  -2  14    0.66    1.85
   5  -3  14   -2.44    1.84
  -5   2  14    1.15    1.87
  -5   3  14    0.57    1.89
   3   2  14    0.15    1.80
  -3   5  14   -0.64    1.91
  -2   5  14   -0.65    1.94
   2   3  14    1.25    1.82
  -2   5 -14   -0.10    1.08
  -3   5 -14    0.58    1.72
   3   2 -14    1.78    1.02
  -5   3 -14    2.54    1.72
   2   3 -14   -1.97    1.69
  -5   2 -14    1.47    1.07
   5  -2 -14    3.08    1.67
  -3  -2 -14   -0.01    1.75
   5  -3 -14    2.39    1.73
   2  -5 -14   -0.14    1.75
   3  -5 -14   -0.59    1.77
  -2  -3 -14   -0.18    1.76
  -3  -3   0  293.48    8.08
  -6   3   0  295.55    8.72
   3   3   0  292.21    8.24
   3  -6   0  290.24    8.51
  -3  -3   0  280.83    7.46
   6  -3   0  291.12    7.09
  -3  -3   1   81.88    1.95
  -6   3   1   85.28    2.19
   3  -6   1   81.80    2.12
  -3  -3   1   78.11    1.68
   6  -3   1   80.64    1.56
   3   3  -1   82.74    2.01
   6  -3  -1   81.30    2.14
  -3  -3  -1   81.01    1.76
   3   3  -1   84.98    2.14
  -3   6  -1   83.98    2.23
  -6   3  -1   83.73    1.59
   6  -3  -1   82.13    1.71
  -3  -3  -1   80.37    1.72
  -6   3   2  106.89    2.90
   3  -6   2  104.33    2.82
  -3  -3   2  102.49    2.44
   6  -3   2  101.56    2.45
  -6   3   2  105.60    2.53
   3  -6  -2  104.85    2.08
   3   3  -2  101.10    2.70
   6  -3  -2  105.47    2.82
  -3   6  -2  105.55    2.82
   3   3  -2  103.09    2.49
  -6   3  -2  105.89    2.44
   6  -3  -2  106.35    2.25
  -3  -3  -2  102.92    2.46
   3  -6  -2  104.36    2.89
  -6   3   3   16.81    0.97
   3  -6   3   15.29    0.95
  -3  -3   3   16.37    1.06
   6  -3   3   15.91    0.75
  -6   3   3   15.92    0.74
   3   3   3   16.14    0.88
   3   3  -3   15.64    0.93
   6  -3  -3   16.49    0.93
  -3   6  -3   16.12    0.98
   3   3  -3   16.60    0.82
  -6   3  -3   16.51    0.93
   6  -3  -3   16.54    0.73
  -3  -3  -3   16.46    0.87
   3  -6  -3   17.05    1.01
   3  -6   4   59.42    2.05
  -3  -3   4   59.65    1.95
   6  -3   4   58.86    1.93
  -6   3   4   60.48    1.93
   3   3   4   59.19    2.02
  -3   6   4   61.49    2.16
   3   3  -4   58.97    2.02
   6  -3  -4   59.11    2.00
  -3   6  -4   63.30    2.12
   3   3  -4   64.32    1.90
  -6   3  -4   60.20    1.87
   6  -3  -4   60.10    1.80
  -3  -3  -4   62.53    2.05
   3  -6  -4   61.25    1.62
   3  -6   5   11.22    1.02
  -3  -3   5   11.25    0.96
   6  -3   5   13.57    0.96
  -6   3   5   12.26    0.99
   3   3   5   12.31    1.00
  -3   6   5   13.87    1.11
   6  -3  -5   12.00    1.00
  -3   6  -5   12.34    1.02
   3   3  -5   11.94    0.94
  -6   3  -5   13.96    0.94
   6  -3  -5   13.32    1.24
  -3  -3  -5   12.46    1.00
   3  -6  -5   12.55    1.09
   3  -6   6   41.52    1.84
  -3  -3   6   40.48    1.80
   6  -3   6   42.96    1.76
  -6   3   6   40.82    1.86
   3   3   6   42.16    1.84
  -3   6   6   40.12    1.93
   6  -3  -6   41.87    1.38
  -3   6  -6   43.41    1.87
   3   3  -6   42.62    1.81
  -6   3  -6   41.07    1.78
   6  -3  -6   40.07    1.77
  -3  -3  -6   43.70    1.43
   3  -6  -6   43.55    1.97
   3  -6   7   15.57    1.42
  -3  -3   7   15.83    1.39
   6  -3   7   15.65    1.35
  -6   3   7   16.90    1.43
   3   3   7   16.30    1.40
  -3   6   7   18.05    0.99
   6  -3  -7   17.35    1.43
  -3   6  -7   17.97    1.41
   3   3  -7   17.16    1.32
  -6   3  -7   18.17    1.38
   6  -3  -7   17.22    1.34
  -3  -3  -7   17.55    1.36
   3  -6  -7   17.53    0.97
   3  -6   8    2.46    1.09
  -3  -3   8    0.41    1.05
   6  -3   8    1.16    0.62
  -6   3   8    3.27    1.07
   3   3   8    0.30    1.05
  -3   6   8    1.63    1.09
   6  -3  -8    1.42    1.11
  -3   6  -8    1.47    1.07
   3   3  -8   -0.02    0.98
  -6   3  -8    1.39    1.01
   6  -3  -8    2.73    0.98
  -3  -3  -8    2.06    1.07
   3  -6  -8    1.18    0.66
   3  -6   9    5.20    1.41
  -3  -3   9    6.32    1.36
   6  -3   9    5.40    1.38
  -6   3   9    5.51    1.44
   3   3   9    5.53    1.39
  -3   6   9    6.76    1.48
   6  -3  -9    6.94    1.45
  -3   6  -9    6.18    1.37
   3   3  -9    5.99    0.81
  -6   3  -9    6.93    1.35
   6  -3  -9    6.82    1.32
  -3  -3  -9    5.40    1.43
   3  -6  -9    5.56    1.42
   3  -6  10    8.18    1.76
  -3  -3  10   10.15    1.67
   6  -3  10    9.54    1.09
  -6   3  10   10.86    1.77
   3   3  10    8.98    1.72
  -3   6  10   10.13    1.80
   6  -3 -10    9.27    1.16
  -3   6 -10   11.95    1.72
   3   3 -10    9.67    1.02
  -6   3 -10   10.00    1.65
   6  -3 -10   10.02    1.58
  -3  -3 -10   12.48    1.07
   3  -6 -10    8.93    1.74
   3  -6  11    6.46    1.65
  -3  -3  11    4.76    1.66
   6  -3  11    4.90    1.67
  -6   3  11    4.53    1.71
   3   3  11    5.72    1.65
  -3   6  11    3.31    1.73
   6  -3 -11    4.62    1.08
  -3   6 -11    4.49    1.61
   3   3 -11    7.06    1.52
  -6   3 -11    8.03    1.61
   6  -3 -11    2.47    1.57
  -3  -3 -11    6.14    1.63
   3  -6 -11    4.38    1.69
   3  -6  12    5.57    1.81
  -3  -3  12    3.30    1.81
   6  -3  12    3.39    1.79
  -6   3  12    6.38    1.81
   3   3  12    4.91    1.81
  -3   6  12    7.52    1.85
   6  -3 -12    3.55    1.98
  -3   6 -12    2.84    1.70
   3   3 -12    4.10    1.64
  -6   3 -12    5.10    1.07
   6  -3 -12    5.34    1.65
  -3  -3 -12    1.22    1.72
   3  -6 -12    4.50    1.10
   3  -6  13    2.06    1.79
  -3  -3  13    3.18    1.07
   6  -3  13    2.45    1.71
  -6   3  13    0.31    1.76
   3   3  13   -1.36    1.78
  -3   6  13    0.37    1.80
   6  -3 -13   -0.65    1.99
  -3   6 -13    2.23    1.69
   3   3 -13    1.62    1.58
  -6   3 -13   -0.85    1.67
   6  -3 -13    0.48    1.63
  -3  -3 -13    0.30    1.61
   3  -6 -13    0.55    1.69
  -6   3  14    3.47    2.01
   3   3  14    1.15    1.98
  -3   6  14    3.20    2.00
   6  -3 -14   -0.56    2.30
   3   3 -14    1.09    1.78
  -3   6 -14    0.11    1.86
  -6   3 -14    1.95    1.87
   6  -3 -14    1.93    1.81
   0  -4   0    3.68    0.29
   0   4   0    3.32    0.30
  -4   0   0    4.04    0.66
   4   0   0    4.32    0.65
  -4   4   0    3.61    0.45
   0   4   0    3.18    0.38
   0  -4   0    4.15    0.57
   4  -4   0    3.87    0.47
  -4   0   0    3.12    0.21
  -4   4   1   -0.01    0.36
  -4   0   1    0.60    0.52
   0  -4   1   -0.33    0.47
   4  -4   1    0.08    0.38
  -4   0   1    0.19    0.25
   4   0   1    0.37    0.27
   0   4  -1    0.10    0.27
   4   0  -1   -0.37    0.54
   4  -4  -1    0.38    0.35
   0   4  -1    0.16    0.50
  -4   4  -1    0.88    0.40
   4   0  -1    0.40    0.24
  -4   0  -1    0.31    0.25
   4  -4  -1   -0.17    0.40
  -4   0   2    9.26    0.69
   0  -4   2    7.78    0.61
   4  -4   2    7.56    0.53
  -4   0   2    7.86    0.56
   4   0   2    7.22    0.55
  -4   4   2    7.86    0.55
   4  -4  -2    7.52    0.48
   4   0  -2    8.47    0.41
   0   4  -2    8.27    0.63
  -4   4  -2    8.40    0.55
   4   0  -2    7.64    0.51
  -4   0  -2    8.01    0.42
   4  -4  -2    7.96    0.57
   0  -4  -2    8.84    0.69
   0  -4   3   -0.35    0.50
   4  -4   3    0.34    0.46
  -4   0   3   -0.14    0.57
   4   0   3    0.54    0.40
  -4   4   3    0.34    0.48
   0   4   3   -0.10    0.54
   4  -4  -3    0.00    0.41
   4   0  -3    0.49    0.32
   0   4  -3    0.61    0.50
  -4   4  -3    0.68    0.46
   4   0  -3    0.46    0.38
  -4   0  -3    0.42    0.42
   4  -4  -3    0.21    0.47
   0  -4  -3    0.54    0.54
   0  -4   4    0.81    0.65
   4  -4   4    1.16    0.62
  -4   0   4    0.26    0.59
   4   0   4    0.83    0.58
  -4   4   4    1.15    0.64
   0   4   4    1.59    0.69
   4   0  -4    0.91    0.67
   0   4  -4    1.05    0.40
  -4   4  -4    1.15    0.61
   4   0  -4    1.66    0.75
  -4   0  -4    2.13    0.60
   4  -4  -4    0.98    0.64
   0  -4  -4    0.22    0.71
   0  -4   5   -0.49    0.71
   4  -4   5    0.13    0.69
  -4   0   5    0.92    0.67
   4   0   5    0.52    0.67
  -4   4   5    0.53    0.68
   0   4   5   -0.34    0.71
   0   4  -5    0.08    0.69
  -4   4  -5   -0.02    0.69
   4   0  -5    1.13    0.63
  -4   0  -5    1.89    0.70
   4  -4  -5    0.04    0.69
   0  -4  -5    0.22    0.45
   0  -4   6    1.03    0.76
   4  -4   6    1.04    0.76
  -4   0   6    0.22    0.76
   4   0   6   -0.08    0.75
  -4   4   6    1.43    0.78
   0   4   6    0.41    0.77
   0   4  -6   -0.06    0.77
  -4   4  -6    1.34    0.73
   4   0  -6    1.35    0.69
  -4   0  -6    2.08    0.74
   4  -4  -6    0.30    0.78
   0  -4  -6    1.05    0.79
   0  -4   7   -0.55    0.84
   4  -4   7   -1.34    0.83
  -4   0   7    1.21    0.82
  -4   4   7   -0.31    0.85
   0   4   7    0.32    0.85
   0   4  -7   -0.38    0.81
  -4   4  -7   -1.05    0.85
   4  -4  -7    1.42    0.81
   0  -4  -7   -1.05    0.87
   0  -4   8   -0.50    1.04
   4  -4   8    0.80    1.00
  -4   0   8    2.55    0.97
   4   0   8    0.76    0.98
   0   4   8    0.08    1.00
  -4   4   8    1.34    1.01
   0   4  -8    0.95    0.59
  -4   4  -8    0.56    0.97
   4   0  -8    1.65    0.89
  -4   0  -8    0.25    0.97
   4  -4  -8    0.19    0.98
   0  -4  -8    0.20    0.60
   0  -4   9   -1.22    1.15
   4  -4   9   -1.96    1.14
  -4   0   9    1.43    0.69
   4   0   9    2.71    1.12
   0   4   9    1.27    1.12
  -4   4   9   -1.20    1.18
   0   4  -9    0.71    0.65
  -4   4  -9    0.82    1.13
   4   0  -9    2.80    1.05
  -4   0  -9    2.82    1.12
   4  -4  -9   -1.46    1.13
   0  -4  -9   -1.68    1.13
   0  -4  10   -0.48    1.23
   4  -4  10   -2.02    1.23
  -4   0  10    1.45    1.25
   4   0  10    2.73    1.23
   0   4  10    0.85    1.25
  -4   4  10    0.11    1.27
   0   4 -10    0.71    0.70
  -4   4 -10    1.10    1.20
   4   0 -10    1.75    1.10
  -4   0 -10   -1.01    1.17
   4  -4 -10    0.17    1.20
   0  -4 -10   -2.43    1.24
   0  -4  11   -3.89    1.43
   4  -4  11    0.85    1.43
   4   0  11    3.22    1.43
   0   4  11   -2.38    1.44
  -4   4  11   -1.85    1.43
   0   4 -11    0.65    1.30
  -4   4 -11    0.54    1.38
   4  -4 -11   -1.01    1.41
   0  -4 -11   -3.36    1.44
   0  -4  12   -1.51    0.94
   4  -4  12   -0.14    1.48
  -4   0  12    1.05    1.50
   4   0  12    2.90    1.54
  -4   4  12    0.88    0.96
   0   4  12   -2.20    1.58
   0   4 -12   -3.09    1.44
  -4   4 -12   -0.57    1.44
   4   0 -12    1.55    1.36
  -4   0 -12   -0.92    0.89
   4  -4 -12   -0.66    1.48
   0  -4 -12   -1.90    1.46
   0  -4  13    1.58    1.68
   4  -4  13    1.31    1.60
  -4   0  13   -0.19    1.66
   4   0  13    0.11    1.62
  -4   4  13    0.39    1.70
   0   4  13    0.11    1.68
  -4   4 -13   -1.05    1.56
   0   4 -13    1.48    1.54
   4   0 -13    0.28    1.48
  -4   0 -13    1.61    1.57
   4  -4 -13    0.42    0.94
   0  -4 -13   -0.20    1.63
   0  -4  14   -3.03    1.79
   4  -4  14    2.16    1.76
  -4   0  14    1.25    1.80
   4   0  14    2.81    1.79
  -4   4  14    1.54    1.80
   0   4  14   -0.45    1.81
   0   4 -14   -3.18    1.65
  -4   4 -14   -1.45    1.70
   4   0 -14   -0.77    1.63
  -4   0 -14    0.96    1.67
   4  -4 -14    0.53    1.70
   0  -4 -14    0.03    1.68
  -1  -4   0   85.03    1.70
  -5   1   0   87.09    2.24
  -4  -1   0   86.02    2.13
   1   4   0   85.05    1.78
  -5   4   0   82.62    1.92
  -4   5   0   84.47    1.85
   4   1   0   85.88    2.14
   5  -1   0   81.85    2.15
   1  -5   0   80.00    2.06
  -1  -4   0   80.98    1.92
   5  -4   0   84.84    1.68
   4  -5   0   85.22    2.00
  -4  -1   0   84.44    1.54
  -4  -1   1   80.40    1.99
  -4   5   1   79.63    1.51
  -5   1   1   80.49    2.09
  -5   4   1   79.88    1.85
  -1  -4   1   76.90    1.83
   1  -5   1   79.10    2.01
   4  -5   1   78.32    1.84
   5  -4   1   77.45    1.59
  -4  -1   1   78.30    1.49
  -5   1   1   79.15    1.31
   5  -1   1   79.56    1.40
   1   4  -1   78.33    1.62
   4   1  -1   77.85    1.61
   5  -1  -1   82.76    2.14
   4  -5  -1   78.76    1.67
   5  -4  -1   78.98    1.80
  -1  -4  -1   75.79    1.39
  -4  -1  -1   78.37    1.93
  -1   5  -1   77.58    1.63
   1   4  -1   81.14    1.96
  -4   5  -1   81.44    1.94
  -5   4  -1   80.90    1.67
   4   1  -1   78.98    1.58
   5  -1  -1   77.16    1.24
  -5   1  -1   81.09    1.32
  -4  -1  -1   81.22    1.61
   5  -4  -1   78.69    1.86
  -4  -1   2    1.86    0.57
  -5   4   2    2.32    0.47
  -5   1   2    1.37    0.58
  -1  -4   2    1.85    0.48
   1  -5   2    2.07    0.55
   4  -5   2    1.88    0.48
   5  -4   2    1.54    0.39
  -4  -1   2    2.08    0.34
   5  -1   2    2.05    0.30
  -5   1   2    1.94    0.41
   4   1   2    2.05    0.36
  -5   4   2    2.15    0.40
   1   4  -2    1.36    0.42
   4  -5  -2    1.69    0.44
   4   1  -2    2.46    0.54
   5  -1  -2    2.62    0.58
   5  -4  -2    2.18    0.46
  -1   5  -2    1.96    0.56
  -4   5  -2    1.76    0.49
   1   4  -2    1.81    0.50
  -5   4  -2    1.82    0.40
   4   1  -2    2.11    0.32
   5  -1  -2    2.28    0.38
  -5   1  -2    1.82    0.31
  -4  -1  -2    1.58    0.34
   5  -4  -2    1.96    0.41
  -1  -4  -2    1.87    0.55
   4  -5  -2    2.48    0.52
   1  -5  -2    2.29    0.58
   1  -5   3   11.34    0.53
  -1  -4   3   10.99    0.75
   4  -5   3   10.81    0.74
   5  -4   3   11.41    0.67
  -4  -1   3   11.93    0.64
  -5   1   3   11.64    0.63
   5  -1   3   12.71    0.81
   4   1   3   10.74    0.64
  -5   4   3   11.01    0.70
  -4   5   3   11.68    0.78
   1   4   3   11.47    0.82
  -1   5   3   11.61    0.85
   4  -5  -3   11.72    0.59
   4   1  -3   10.47    0.82
   5  -4  -3   11.57    0.70
   5  -1  -3   12.00    0.81
  -4   5  -3   11.79    0.76
   1   4  -3   11.55    0.77
  -1   5  -3   12.51    0.83
  -5   4  -3   11.27    0.89
   4   1  -3   11.76    0.60
   5  -1  -3   11.78    0.58
  -5   1  -3   12.01    0.63
  -4  -1  -3   11.82    0.66
   5  -4  -3   11.80    0.70
   4  -5  -3   11.95    0.79
  -1  -4  -3   12.33    0.79
   1  -5  -3   12.29    0.88
   1  -5   4    4.24    0.77
   4  -5   4    4.19    0.74
  -1  -4   4    4.02    0.73
   5  -4   4    4.74    0.70
  -4  -1   4    4.43    0.69
   5  -1   4    4.50    0.67
  -5   1   4    5.07    0.68
   4   1   4    4.61    0.67
  -5   4   4    4.24    0.72
  -1   5   4    4.83    0.84
   1   4   4    3.68    0.82
  -4   5   4    5.53    0.80
   5  -4  -4    4.30    0.71
   4   1  -4    4.17    0.80
   5  -1  -4    3.60    0.77
  -1   5  -4    4.01    0.49
  -4   5  -4    4.78    0.74
   1   4  -4    5.39    0.74
  -5   4  -4    5.05    0.69
   4   1  -4    4.36    0.63
   5  -1  -4    4.50    0.62
  -5   1  -4    4.98    0.68
  -4  -1  -4    4.51    0.69
   5  -4  -4    4.76    0.72
   4  -5  -4    4.06    0.79
   1  -5  -4    4.34    0.83
  -1  -4  -4    4.91    0.79
   1  -5   5   80.94    2.74
  -1  -4   5   84.44    2.73
   4  -5   5   86.35    2.78
   5  -4   5   86.30    2.73
  -4  -1   5   83.36    2.82
  -5   1   5   83.22    2.82
   5  -1   5   81.75    2.72
   4   1   5   79.53    2.70
  -5   4   5   83.92    2.77
  -4   5   5   85.13    2.79
   1   4   5   82.72    2.78
  -1   5   5   81.21    2.84
   4   1  -5   82.11    2.72
   5  -4  -5   83.59    2.69
   5  -1  -5   82.99    2.16
   1   4  -5   86.74    2.79
  -1   5  -5   87.06    2.81
  -4   5  -5   87.67    2.84
  -5   4  -5   88.58    2.25
   4   1  -5   83.17    2.67
   5  -1  -5   82.14    2.64
  -5   1  -5   86.62    2.85
  -4  -1  -5   84.77    2.75
   5  -4  -5   85.56    2.80
   4  -5  -5   88.60    2.30
  -1  -4  -5   89.34    2.91
   1  -5  -5   88.47    2.91
   4  -5   6    6.66    0.92
   1  -5   6    5.87    0.95
  -1  -4   6    5.81    0.92
   5  -4   6    6.38    0.92
  -4  -1   6    7.02    0.92
  -5   1   6    6.11    0.92
   5  -1   6    6.10    0.90
   4   1   6    5.63    0.90
  -5   4   6    6.24    0.93
  -4   5   6    7.74    0.97
   1   4   6    5.47    0.94
  -1   5   6    6.47    0.96
   5  -1  -6    5.47    0.94
  -4   5  -6    6.42    0.94
   1   4  -6    6.06    0.57
  -1   5  -6    5.66    0.95
  -5   4  -6    5.86    0.89
   4   1  -6    5.93    0.84
  -5   1  -6    6.92    0.88
   5  -1  -6    6.61    0.83
  -4  -1  -6    6.16    0.91
   5  -4  -6    6.80    0.87
   4  -5  -6    5.50    0.95
  -1  -4  -6    5.27    0.95
   1  -5  -6    6.19    0.98
   4  -5   7   33.56    1.89
  -1  -4   7   36.18    1.92
   1  -5   7   35.39    1.93
   5  -4   7   36.16    1.90
  -4  -1   7   37.00    1.90
   5  -1   7   37.12    1.92
  -5   1   7   37.23    1.95
   4   1   7   34.32    1.87
  -5   4   7   34.41    1.93
   1   4   7   35.32    1.90
  -4   5   7   37.78    1.96
  -1   5   7   35.34    1.93
  -1   5  -7   37.37    1.35
   1   4  -7   36.14    1.84
  -4   5  -7   35.61    1.91
  -5   4  -7   35.09    1.86
   4   1  -7   36.99    1.81
  -5   1  -7   38.67    1.85
   5  -1  -7   37.88    1.79
  -4  -1  -7   36.54    1.92
   5  -4  -7   37.75    1.88
   4  -5  -7   37.55    1.91
  -1  -4  -7   38.59    1.94
   1  -5  -7   36.77    1.92
  -1  -4   8    1.58    1.04
   4  -5   8    2.03    1.06
   1  -5   8    1.89    1.06
   5  -4   8    0.72    1.00
  -4  -1   8    0.66    1.05
   5  -1   8    1.57    1.04
  -5   1   8    1.52    1.06
   4   1   8    0.03    1.01
  -5   4   8    1.33    1.06
  -1   5   8    1.59    1.10
  -4   5   8   -0.25    1.07
   1   4   8    1.82    1.02
  -1   5  -8    1.66    1.04
  -4   5  -8    0.39    1.04
   1   4  -8    2.44    1.01
  -5   4  -8    1.29    1.02
   4   1  -8    0.37    0.94
   5  -1  -8    2.43    0.95
  -5   1  -8    1.91    1.00
  -4  -1  -8    1.03    1.03
   5  -4  -8    1.90    1.00
   4  -5  -8    2.27    0.62
  -1  -4  -8    2.12    0.63
   1  -5  -8    1.16    1.08
   1  -5   9   13.06    1.72
  -1  -4   9   13.36    1.09
   4  -5   9   14.05    1.66
   5  -4   9   12.62    1.59
  -4  -1   9   14.13    1.68
  -5   1   9   13.56    1.69
   5  -1   9   13.17    1.06
   4   1   9   14.25    1.65
  -4   5   9   13.96    1.73
  -5   4   9   13.77    1.69
   1   4   9   13.07    1.67
  -1   5   9   13.25    1.10
  -1   5  -9   15.54    1.62
   1   4  -9   13.32    1.57
  -4   5  -9   15.46    1.61
  -5   4  -9   14.57    1.62
   4   1  -9   12.97    1.52
   5  -1  -9   15.96    1.55
  -5   1  -9   14.45    1.59
  -4  -1  -9   14.28    1.63
   5  -4  -9   14.17    1.61
  -1  -4  -9   13.73    1.67
   4  -5  -9   13.06    1.64
   1  -5  -9   14.70    1.65
   1  -5  10    4.71    1.47
  -1  -4  10    2.92    1.45
   4  -5  10    4.68    1.48
   5  -4  10    4.77    1.48
  -4  -1  10    3.82    1.47
  -5   1  10    6.51    1.50
   5  -1  10    4.61    1.48
   4   1  10    4.65    1.48
  -4   5  10    3.56    1.51
  -5   4  10    3.28    1.53
   1   4  10    3.17    1.50
  -1   5  10    4.85    0.93
  -1   5 -10    4.02    1.44
   1   4 -10    3.91    1.40
  -4   5 -10    4.64    1.44
   4   1 -10    6.32    1.31
  -5   4 -10    6.12    1.43
   5  -1 -10    7.66    1.34
  -5   1 -10    6.54    1.45
  -4  -1 -10    6.94    1.44
   5  -4 -10    5.29    1.39
   1  -5 -10    5.91    1.47
  -1  -4 -10    6.47    1.46
   4  -5 -10    5.06    1.48
   1  -5  11    7.64    1.85
   4  -5  11    8.64    1.85
  -1  -4  11    9.79    1.84
   5  -4  11   10.02    1.90
  -4  -1  11   12.65    1.92
  -5   1  11   11.71    1.93
   5  -1  11   11.79    1.88
   4   1  11    9.91    1.19
  -5   4  11   10.82    1.95
  -1   5  11   11.02    1.26
  -4   5  11   10.19    1.98
   1   4  11    8.22    1.92
  -1   5 -11    8.89    1.79
   1   4 -11   11.30    1.75
  -4   5 -11   10.12    1.85
   4   1 -11   12.43    1.73
  -5   4 -11   11.07    1.86
  -5   1 -11   11.53    1.82
   5  -1 -11   11.44    1.74
  -4  -1 -11   10.63    1.82
   5  -4 -11    9.10    1.83
  -1  -4 -11   13.04    1.21
   4  -5 -11   10.02    1.87
   1  -5 -11   11.67    1.89
   4  -5  12    4.93    1.09
   1  -5  12    2.78    1.77
  -1  -4  12    4.20    1.10
   5  -4  12    3.86    1.74
  -4  -1  12    4.66    1.75
  -5   1  12    3.21    1.12
   5  -1  12    6.35    1.77
   4   1  12    4.72    1.71
  -5   4  12    3.46    1.12
  -4   5  12    3.11    1.79
  -1   5  12    5.00    1.14
   1   4  12    3.44    1.79
  -1   5 -12    3.85    1.67
  -5   4 -12    5.58    1.63
  -4   5 -12    2.17    1.66
   1   4 -12    4.58    1.63
   4   1 -12    1.76    1.00
   5  -1 -12    5.50    1.57
  -5   1 -12    5.02    1.64
  -4  -1 -12    3.75    1.68
   5  -4 -12    4.15    1.66
  -1  -4 -12    5.72    1.69
   4  -5 -12    2.72    1.71
   1  -5 -12    5.08    1.73
   1  -5  13   -1.09    1.74
   5  -4  13    2.31    1.68
   4  -5  13    3.39    1.69
  -1  -4  13   -0.86    1.72
  -4  -1  13    1.79    1.73
   5  -1  13    0.91    1.72
  -5   1  13    2.69    1.74
   4   1  13   -0.52    1.70
  -5   4  13    0.81    1.77
   1   4  13   -2.30    1.72
  -1   5  13    0.01    1.78
  -4   5  13    0.20    1.79
  -1   5 -13    1.40    0.97
  -4   5 -13    2.32    1.64
   1   4 -13    2.87    1.54
  -5   4 -13    0.80    1.64
   4   1 -13    0.47    1.56
  -5   1 -13    1.32    0.98
   5  -1 -13    2.16    1.56
  -4  -1 -13    1.99    1.61
   5  -4 -13    1.12    1.59
   1  -5 -13    2.17    1.68
   4  -5 -13    0.90    1.63
  -1  -4 -13    0.26    1.66
  -1  -4  14    1.06    2.02
   4  -5  14    1.37    1.98
   1  -5  14    1.37    2.05
   5  -4  14    1.37    1.25
  -4  -1  14    4.14    2.02
   5  -1  14    4.18    1.98
  -5   1  14    1.30    2.02
   4   1  14    1.99    1.95
  -5   4  14    1.04    2.06
  -4   5  14    3.09    2.10
   1   4  14    3.39    2.03
  -1   5  14    4.22    2.08
   5  -1 -14    3.60    1.38
   1   4 -14    1.48    1.87
  -4   5 -14    3.12    1.90
  -1   5 -14    2.95    1.88
   4   1 -14    2.90    1.80
  -5   4 -14    2.05    1.90
   5  -1 -14    3.38    1.83
  -5   1 -14    3.06    1.90
   5  -4 -14    2.29    1.87
  -4  -1 -14    4.38    1.91
  -1  -4 -14    0.67    1.91
   4  -5 -14   -0.26    1.92
   1  -5 -14    1.88    1.95
  -2  -4   0   27.94    0.82
  -4  -2   0   28.15    0.94
  -6   2   0   28.68    1.12
  -6   4   0   28.12    0.99
   2   4   0   28.68    0.95
   4   2   0   28.84    0.98
   4  -6   0   26.62    0.98
  -2  -4   0   28.72    1.04
   2  -6   0   28.13    1.04
  -4  -2   0   28.78    0.74
  -2  -4   1    2.35    0.38
  -4   6   1    2.48    0.33
  -4  -2   1    2.48    0.54
  -6   2   1    2.83    0.62
  -6   4   1    2.92    0.54
   2  -6   1    3.08    0.60
  -2  -4   1    2.59    0.45
   4  -6   1    2.16    0.54
  -4  -2   1    2.77    0.38
   6  -4   1    2.71    0.30
   6  -2   1    2.01    0.27
   2   4  -1    2.23    0.43
   4   2  -1    2.78    0.55
   6  -2  -1    2.96    0.63
  -2  -4  -1    2.98    0.33
   6  -4  -1    2.31    0.52
  -4  -2  -1    3.21    0.48
   4  -6  -1    2.58    0.30
  -6   2  -1    2.76    0.39
   2  -6  -1    2.44    0.36
  -2   6  -1    2.53    0.63
   2   4  -1    2.88    0.50
  -4   6  -1    3.17    0.57
   4   2  -1    2.70    0.33
  -6   4  -1    2.59    0.43
  -6   2  -1    2.10    0.21
   6  -2  -1    2.24    0.21
   6  -4  -1    3.03    0.42
  -4  -2  -1    2.91    0.45
  -4  -2   2    3.76    0.63
  -6   2   2    3.33    0.70
  -6   4   2    4.09    0.61
   2  -6   2    3.84    0.40
  -2  -4   2    3.35    0.52
   4  -6   2    3.79    0.60
  -4  -2   2    3.29    0.40
   6  -4   2    2.84    0.55
   6  -2   2    3.04    0.44
  -6   2   2    3.19    0.42
   2   4  -2    4.18    0.54
   4   2  -2    3.40    0.62
   4  -6  -2    3.00    0.42
   6  -4  -2    3.50    0.60
   6  -2  -2    3.65    0.67
  -4   6  -2    3.16    0.38
   2   4  -2    3.78    0.55
  -2   6  -2    3.55    0.67
   4   2  -2    3.38    0.54
  -6   4  -2    3.02    0.41
  -6   2  -2    2.49    0.43
   6  -2  -2    3.58    0.43
   6  -4  -2    3.71    0.42
  -4  -2  -2    3.06    0.41
  -2  -4  -2    3.39    0.59
   2  -6  -2    3.38    0.71
   4  -6  -2    2.86    0.63
  -6   4   3    4.63    0.68
  -6   2   3    4.95    0.77
   2  -6   3    3.72    0.74
   4  -6   3    4.83    0.70
  -2  -4   3    3.98    0.65
   6  -4   3    3.92    0.55
  -4  -2   3    4.63    0.56
   6  -2   3    3.79    0.51
  -6   2   3    3.86    0.68
  -6   4   3    3.96    0.56
   4   2   3    4.10    0.62
   2   4   3    3.95    0.69
   4  -6  -3    4.26    0.45
   2   4  -3    5.23    0.68
   4   2  -3    4.90    0.74
   6  -4  -3    4.37    0.66
   6  -2  -3    4.56    0.74
  -4   6  -3    4.85    0.72
  -2   6  -3    3.80    0.76
   2   4  -3    4.48    0.67
   4   2  -3    4.33    0.54
  -6   4  -3    3.90    0.73
  -6   2  -3    4.40    0.67
   6  -2  -3    4.53    0.66
   6  -4  -3    3.69    0.57
  -4  -2  -3    4.26    0.60
  -2  -4  -3    4.61    0.69
   4  -6  -3    4.67    0.76
   2  -6  -3    4.34    0.48
   2  -6   4    0.07    0.70
   4  -6   4    0.35    0.67
  -2  -4   4    0.28    0.62
  -4  -2   4    0.72    0.57
   6  -4   4    1.55    0.58
   6  -2   4    1.11    0.57
  -6   2   4    1.42    0.56
  -6   4   4    1.31    0.58
   4   2   4    1.10    0.61
   2   4   4    0.14    0.70
  -2   6   4    0.76    0.76
  -4   6   4    0.90    0.43
   4   2  -4    0.40    0.69
   6  -2  -4    0.60    0.41
   6  -4  -4    1.15    0.63
  -2   6  -4    1.50    0.44
  -4   6  -4    1.66    0.68
   2   4  -4    0.73    0.63
  -6   4  -4   -0.11    0.57
   4   2  -4    0.74    0.55
  -6   2  -4    0.96    0.56
   6  -2  -4    1.25    0.54
  -4  -2  -4    0.90    0.83
   6  -4  -4    1.17    0.58
  -2  -4  -4    1.00    0.66
   4  -6  -4    0.17    0.70
   2  -6  -4    0.63    0.73
   2  -6   5   12.60    1.04
   4  -6   5   12.28    1.01
  -2  -4   5   11.10    0.97
  -4  -2   5   10.76    0.98
   6  -4   5   12.17    0.97
   6  -2   5   11.51    1.24
  -6   2   5   11.38    0.97
   4   2   5   10.77    0.96
  -6   4   5   11.80    0.97
   2   4   5   11.78    1.01
  -2   6   5   11.97    1.14
  -4   6   5   12.34    0.72
   4   2  -5   10.54    1.05
   6  -2  -5   12.04    0.67
   6  -4  -5   12.13    0.98
  -4   6  -5   12.57    1.04
  -2   6  -5   12.30    0.69
   2   4  -5   11.90    0.98
   4   2  -5   12.38    0.91
  -6   4  -5    9.96    0.97
  -6   2  -5   11.44    1.25
   6  -2  -5   12.32    0.89
   6  -4  -5   11.26    0.97
  -4  -2  -5   11.97    1.01
  -2  -4  -5   11.81    1.05
   4  -6  -5   11.87    1.05
   2  -6  -5   12.21    1.09
   4  -6   6   -1.13    0.77
   2  -6   6    0.35    0.49
  -2  -4   6   -0.79    0.75
  -4  -2   6    0.59    0.74
   6  -4   6    1.58    0.74
   6  -2   6    0.96    0.73
   4   2   6    0.84    0.44
  -4   6   6   -1.09    0.81
   2   4   6    0.57    0.76
  -2   6   6    0.25    0.84
   4   2  -6    1.65    0.77
   6  -4  -6    0.68    0.78
   6  -2  -6    1.26    0.80
  -2   6  -6   -0.47    0.79
  -4   6  -6    0.28    0.47
   2   4  -6   -1.32    0.75
   4   2  -6    0.20    0.68
  -6   4  -6    0.27    0.73
   6  -2  -6    1.20    0.69
  -4  -2  -6   -0.50    0.73
   6  -4  -6    0.62    0.73
  -2  -4  -6    0.70    0.47
   2  -6  -6   -0.34    0.84
   4  -6  -6    0.35    0.80
   2  -6   7    4.06    1.03
   4  -6   7    2.88    1.03
  -2  -4   7    2.06    0.96
  -4  -2   7    3.72    1.01
   6  -4   7    1.08    1.01
   6  -2   7    5.59    0.98
  -6   2   7    5.79    1.05
   4   2   7    3.17    1.01
  -6   4   7    3.24    1.02
   2   4   7    1.40    1.02
  -2   6   7    0.38    1.05
  -4   6   7    2.71    1.03
   6  -4  -7    2.85    1.02
   6  -2  -7    2.26    1.04
  -4   6  -7    1.88    0.99
  -2   6  -7    2.90    1.01
   2   4  -7    2.66    0.60
   4   2  -7    3.11    0.93
  -6   4  -7    2.31    0.98
   6  -2  -7    5.54    0.93
   6  -4  -7    5.25    1.00
  -4  -2  -7    2.99    0.98
  -2  -4  -7    2.90    0.63
   2  -6  -7    1.10    1.07
   4  -6  -7    2.04    1.03
   2  -6   8    2.20    0.70
   4  -6   8    1.06    1.13
  -2  -4   8    2.83    1.11
  -4  -2   8    3.52    1.08
   6  -4   8    2.26    0.66
   6  -2   8    1.87    1.10
  -6   2   8    2.18    1.13
  -6   4   8    2.01    1.13
   4   2   8    2.63    1.10
   2   4   8    2.51    0.69
  -2   6   8    2.97    1.16
  -4   6   8    3.64    1.13
   6  -4  -8    3.15    1.16
   6  -2  -8    3.05    1.17
  -2   6  -8    2.21    1.10
   2   4  -8    1.66    1.07
  -4   6  -8    3.03    1.13
   4   2  -8    1.87    1.03
  -6   4  -8    2.95    1.08
  -6   2  -8    3.41    1.08
   6  -2  -8    3.10    1.02
   6  -4  -8    2.45    1.06
  -4  -2  -8    2.19    1.11
  -2  -4  -8    2.53    1.08
   2  -6  -8    1.63    1.16
   4  -6  -8    2.84    1.15
   2  -6   9    1.00    0.77
   4  -6   9    1.71    1.22
  -2  -4   9    1.31    0.75
  -4  -2   9   -0.65    1.20
   6  -4   9    1.31    1.19
   6  -2   9    2.22    1.19
  -6   2   9    3.61    1.25
  -6   4   9   -0.26    1.25
  -4   6   9   -0.01    1.30
   2   4   9    0.34    1.22
  -2   6   9    2.08    1.23
   6  -2  -9    3.31    1.27
   6  -4  -9    1.07    0.76
   2   4  -9    1.60    1.12
  -4   6  -9    3.10    1.19
  -2   6  -9    0.23    1.22
  -6   4  -9    0.54    1.18
   4   2  -9    0.22    1.11
  -6   2  -9    3.51    1.18
   6  -2  -9    3.85    1.10
   6  -4  -9    2.29    1.15
  -4  -2  -9   -0.83    1.21
  -2  -4  -9   -0.23    1.20
   4  -6  -9    0.27    0.74
   2  -6  -9    1.11    1.24
   2  -6  10   -1.20    1.31
   4  -6  10    1.22    1.24
  -2  -4  10   -2.22    1.24
  -4  -2  10    0.27    0.76
   6  -4  10   -0.14    1.29
  -6   2  10    2.01    1.30
  -6   4  10    1.45    1.30
   4   2  10    0.83    1.23
   2   4  10    0.44    1.27
  -4   6  10   -0.99    1.31
  -2   6  10   -0.12    1.28
   6  -2 -10    0.63    1.34
  -4   6 -10    0.21    0.75
  -2   6 -10    0.09    1.22
   2   4 -10   -1.94    1.17
   4   2 -10    0.14    1.14
  -6   4 -10    0.20    1.25
  -6   2 -10    1.89    1.19
   6  -4 -10    0.58    1.16
  -4  -2 -10    0.09    1.20
   4  -6 -10    0.08    1.25
  -2  -4 -10   -2.21    1.25
   2  -6 -10   -1.00    1.23
   2  -6  11    0.44    1.51
   4  -6  11   -1.50    1.45
  -2  -4  11   -0.68    1.41
  -4  -2  11   -0.36    1.46
   6  -4  11    0.56    1.43
   6  -2  11    3.18    1.46
  -6   2  11    2.94    1.53
   4   2  11    0.80    1.48
  -6   4  11    3.55    1.50
  -4   6  11    0.24    1.55
   2   4  11   -0.75    1.47
  -2   6  11    0.89    1.52
   6  -2 -11    0.62    1.58
  -2   6 -11   -0.61    1.46
  -4   6 -11    1.74    0.89
   2   4 -11    0.30    1.33
   4   2 -11    0.66    1.34
  -6   4 -11    2.29    1.42
   6  -2 -11    1.84    0.82
   6  -4 -11    1.58    1.35
  -4  -2 -11    1.30    1.41
  -2  -4 -11    0.64    0.88
   4  -6 -11   -0.32    1.47
   2  -6 -11   -0.86    1.45
   4  -6  12   -2.07    1.58
   2  -6  12   -0.76    1.56
  -2  -4  12   -1.97    1.55
   6  -4  12    1.17    1.56
  -4  -2  12    1.01    1.57
   6  -2  12    4.94    1.60
  -6   2  12    1.99    1.61
   4   2  12    1.85    0.95
  -6   4  12    1.93    0.99
   2   4  12    2.15    0.97
  -4   6  12    0.32    1.63
  -2   6  12   -0.54    1.61
   6  -2 -12    0.44    1.76
   6  -4 -12    0.68    1.06
  -4   6 -12    0.78    1.53
  -2   6 -12    0.02    1.52
   2   4 -12    1.53    1.47
  -6   4 -12    3.01    1.53
   4   2 -12   -0.22    1.44
  -6   2 -12    2.13    1.53
   6  -2 -12    3.40    1.47
   6  -4 -12    0.66    0.89
  -4  -2 -12   -1.46    1.54
  -2  -4 -12   -0.95    1.56
   4  -6 -12   -1.14    1.55
   2  -6 -12   -1.49    1.59
   4  -6  13    1.45    1.04
   2  -6  13   -1.03    1.73
  -2  -4  13   -0.45    1.67
  -4  -2  13    1.29    1.69
   6  -4  13    2.84    1.67
   6  -2  13    0.93    1.02
  -6   2  13    0.58    1.04
  -6   4  13    0.92    1.71
   4   2  13    2.82    1.68
   2   4  13   -1.08    1.74
  -2   6  13    0.33    1.73
  -4   6  13   -0.89    1.72
   6  -4 -13   -1.51    1.90
   6  -2 -13   -0.12    1.91
  -4   6 -13    0.67    1.63
  -2   6 -13    0.97    1.64
   2   4 -13    0.60    1.52
   4   2 -13   -0.08    0.93
  -6   4 -13    2.48    1.61
  -6   2 -13   -2.39    1.61
   6  -2 -13    0.31    1.53
  -4  -2 -13    2.73    1.57
   6  -4 -13    1.14    1.55
  -2  -4 -13   -0.84    1.60
   4  -6 -13   -0.96    1.65
   2  -6 -13   -0.07    1.70
   2   4 -14    1.67    1.82
   4   2 -14    0.57    1.80
   6  -2 -14    1.92    1.81
  -3  -4   0    3.00    0.43
  -4  -3   0    3.44    0.53
  -7   4   0    4.05    0.67
  -7   3   0    4.29    0.72
   3   4   0    3.23    0.49
   4   3   0    2.88    0.58
   3  -7   0    2.15    0.40
   4  -7   0    2.81    0.39
  -3  -4   0    3.34    0.44
  -4  -3   0    4.01    0.48
   7  -4   0    3.31    0.33
  -3  -4   1    4.44    0.53
  -4  -3   1    5.11    0.61
  -7   4   1    5.03    0.71
  -7   3   1    5.78    0.76
   3  -7   1    4.06    0.73
   4  -7   1    4.81    0.70
  -3  -4   1    4.71    0.50
  -4  -3   1    4.53    0.42
   7  -4   1    3.92    0.42
   7  -3   1    3.93    0.38
   3   4  -1    4.01    0.79
   4   3  -1    3.97    0.66
   7  -3  -1    5.74    0.73
  -4  -3  -1    4.65    0.53
  -3  -4  -1    4.37    0.46
   7  -4  -1    5.25    0.69
  -7   3  -1    4.52    0.76
  -7   4  -1    4.97    0.73
  -3  -4  -1    4.49    0.47
   4  -7  -1    5.11    0.70
   3  -7  -1    5.08    0.72
   3   4  -1    4.65    0.74
  -4   7  -1    5.14    0.73
   4   3  -1    4.07    0.45
  -3   7  -1    4.89    0.77
  -7   4  -1    5.02    0.43
  -7   3  -1    3.99    0.29
   7  -3  -1    4.11    0.37
   7  -4  -1    4.31    0.42
  -4  -3  -1    4.89    0.45
  -4  -3   2    4.64    0.73
  -7   4   2    5.98    0.79
  -7   3   2    6.29    0.85
   4  -7   2    6.85    0.78
   3  -7   2    7.14    0.82
  -3  -4   2    5.88    0.61
  -4  -3   2    4.98    0.53
   7  -4   2    5.33    0.45
   7  -3   2    5.94    0.55
  -7   3   2    4.91    0.52
   3   4  -2    5.32    0.69
   4   3  -2    4.77    0.75
   4  -7  -2    5.47    0.41
   7  -3  -2    6.38    0.82
   7  -4  -2    6.44    0.78
  -4   7  -2    6.32    0.80
  -3   7  -2    4.87    0.52
   3   4  -2    6.59    0.63
   4   3  -2    6.15    0.55
  -7   4  -2    5.77    0.58
  -7   3  -2    5.44    0.49
   7  -3  -2    5.30    0.40
   7  -4  -2    5.86    0.62
  -4  -3  -2    6.30    0.55
  -3  -4  -2    5.78    0.66
   4  -7  -2    7.05    0.84
   3  -7  -2    6.51    0.82
  -7   4   3    0.20    0.40
  -7   3   3    0.50    0.72
   3  -7   3    1.36    0.66
   4  -7   3    0.78    0.39
  -3  -4   3    0.84    0.54
  -4  -3   3   -0.23    0.50
   7  -4   3    0.18    0.45
   7  -3   3    0.83    0.60
  -7   3   3    0.76    0.57
  -7   4   3   -0.22    0.46
   4   3   3    0.30    0.55
   4  -7  -3    0.56    0.46
   3   4  -3   -0.37    0.62
   4   3  -3   -0.08    0.65
   7  -3  -3   -0.03    0.67
   7  -4  -3    1.55    0.64
  -4   7  -3    1.12    0.65
  -3   7  -3    1.43    0.69
   3   4  -3    0.65    0.54
   4   3  -3    1.03    0.51
  -7   4  -3    0.25    0.44
  -7   3  -3    0.76    0.40
   7  -4  -3    0.94    0.62
  -4  -3  -3    0.23    0.71
  -3  -4  -3    0.52    0.58
   4  -7  -3    1.03    0.69
   3  -7  -3    0.41    0.73
   3  -7   4    0.04    0.70
   4  -7   4    0.53    0.68
  -3  -4   4    1.20    0.60
  -4  -3   4    0.37    0.57
   7  -4   4    0.91    0.56
  -7   3   4    1.37    0.52
  -7   4   4    0.91    0.56
   4   3   4    1.34    0.86
   3   4   4    0.39    0.65
   3   4  -4    0.68    0.66
   4   3  -4    0.17    0.69
   7  -4  -4    0.74    0.64
   7  -3  -4    0.17    0.42
  -4   7  -4   -0.22    0.68
  -3   7  -4    0.01    0.43
   3   4  -4    0.84    0.61
   4   3  -4    0.53    0.56
  -7   4  -4    1.26    0.54
  -7   3  -4    0.69    0.51
   7  -3  -4    1.01    0.53
   7  -4  -4    0.87    0.55
  -4  -3  -4    1.11    0.60
  -3  -4  -4    0.20    0.63
   4  -7  -4    0.44    0.71
   3  -7  -4    0.78    0.74
   4  -7   5    1.67    0.73
   3  -7   5    0.95    0.47
  -3  -4   5    1.49    0.68
  -4  -3   5    0.00    0.67
   7  -4   5    0.55    0.67
   7  -3   5    1.93    0.66
  -7   4   5    0.77    0.68
   4   3   5    0.41    0.70
   3   4   5    0.81    0.75
  -4   7   5    1.27    0.80
  -3   7   5    1.16    0.82
   3   4  -5    0.38    0.73
   4   3  -5    1.00    0.77
   7  -4  -5   -0.44    0.74
   7  -3  -5    0.46    0.74
  -3   7  -5    1.28    0.48
  -4   7  -5    1.42    0.77
   3   4  -5    0.53    0.67
   4   3  -5    1.09    0.65
  -7   4  -5    0.00    0.66
  -7   3  -5    1.34    0.65
   7  -3  -5    1.29    0.63
   7  -4  -5    0.98    0.64
  -4  -3  -5   -0.27    0.70
  -3  -4  -5    0.64    0.74
   4  -7  -5    0.22    0.48
   3  -7  -5   -0.18    0.79
   3  -7   6    2.83    0.89
   4  -7   6    1.50    0.91
  -3  -4   6    1.47    0.86
  -4  -3   6    1.10    0.86
   7  -4   6    2.66    0.85
   7  -3   6    4.03    0.86
  -7   4   6    1.82    0.86
   4   3   6    1.61    0.87
   3   4   6    2.09    0.89
  -4   7   6    3.07    0.99
  -3   7   6    2.19    1.01
   4   3  -6    3.23    0.91
   7  -4  -6    3.78    0.58
   7  -3  -6    2.87    0.92
  -4   7  -6    2.87    0.57
  -3   7  -6    3.95    0.92
   3   4  -6    2.84    0.83
   4   3  -6    3.19    0.81
  -7   4  -6    2.23    0.84
  -7   3  -6    2.57    0.83
   7  -4  -6    3.93    0.89
  -4  -3  -6    2.68    0.87
  -3  -4  -6    2.25    0.89
   3  -7  -6    3.02    0.98
   4  -7  -6    1.32    0.96
   3  -7   7   -0.12    0.96
   4  -7   7   -0.59    0.92
  -3  -4   7   -2.08    0.92
  -4  -3   7   -1.16    0.91
   4   3   7    0.62    0.56
   3   4   7   -1.69    0.92
  -3   7   7   -0.55    0.63
  -4   7   7   -1.68    1.03
   4   3  -7   -0.16    0.92
   7  -4  -7   -0.99    0.97
   7  -3  -7   -0.32    0.98
  -4   7  -7   -0.73    0.94
  -3   7  -7   -0.07    0.94
   4   3  -7    0.41    0.88
   3   4  -7    0.04    0.90
  -7   4  -7   -1.41    0.93
  -7   3  -7    1.50    0.89
   7  -3  -7    0.03    0.85
   7  -4  -7   -0.53    0.92
  -4  -3  -7   -0.62    0.91
  -3  -4  -7    0.42    0.94
   3  -7  -7   -2.36    0.97
   4  -7  -7   -1.52    0.97
   3  -7   8   -1.24    1.05
   4  -7   8   -0.52    1.03
  -3  -4   8    0.02    1.01
  -4  -3   8   -0.39    0.60
   7  -4   8    0.53    0.96
   7  -3   8    0.86    0.97
  -7   3   8   -0.16    1.01
  -7   4   8   -0.43    1.03
   4   3   8    1.17    1.00
   3   4   8   -1.11    1.02
  -4   7   8    0.40    1.06
  -3   7   8    0.82    1.09
   7  -4  -8   -1.02    1.09
   7  -3  -8   -0.32    1.09
  -3   7  -8    0.83    1.02
  -4   7  -8   -1.33    1.06
   4   3  -8    1.78    0.93
   3   4  -8    0.53    0.97
  -7   4  -8   -0.10    0.99
  -7   3  -8   -0.50    0.95
   7  -3  -8    0.22    0.94
   7  -4  -8    1.49    0.95
  -4  -3  -8    0.21    1.01
  -3  -4  -8   -0.69    1.00
   4  -7  -8   -0.48    1.05
   3  -7  -8   -0.61    1.06
   3  -7   9    0.15    1.17
   4  -7   9    1.07    1.17
  -3  -4   9    0.85    0.70
  -4  -3   9   -0.76    1.14
   7  -4   9    1.23    0.71
   7  -3   9    0.00    1.14
  -7   4   9   -1.14    1.20
   3   4   9    0.74    1.17
   4   3   9    0.35    1.16
  -4   7   9   -0.23    1.21
  -3   7   9   -0.76    1.22
   7  -4  -9    1.42    1.27
   7  -3  -9    0.14    0.78
  -4   7  -9    1.09    0.72
  -3   7  -9    0.15    1.15
   3   4  -9    0.10    0.67
   4   3  -9   -1.29    1.07
  -7   4  -9    0.88    1.15
   7  -3  -9    0.37    1.07
   7  -4  -9   -0.94    1.15
  -4  -3  -9   -2.18    1.15
  -3  -4  -9   -0.18    1.16
   3  -7  -9   -0.64    1.17
   4  -7  -9   -0.66    1.20
   3  -7  10    0.03    1.34
   4  -7  10   -1.28    1.35
  -3  -4  10   -0.06    1.33
  -4  -3  10    0.26    1.32
   7  -4  10    0.87    1.38
  -7   4  10    2.69    1.43
   4   3  10    0.42    1.37
   3   4  10    1.19    1.37
  -3   7  10    0.37    1.38
  -4   7  10    1.73    1.42
   7  -3 -10    2.91    1.50
   7  -4 -10    1.20    1.48
  -3   7 -10    1.79    0.85
  -4   7 -10    1.05    1.34
   3   4 -10    0.21    1.27
   4   3 -10    0.12    1.25
  -7   4 -10    1.96    1.38
   7  -4 -10    1.58    1.29
  -4  -3 -10    1.52    1.32
  -3  -4 -10    0.03    1.36
   3  -7 -10    0.93    0.85
   4  -7 -10    1.34    1.35
   3  -7  11    0.85    0.90
   4  -7  11   -0.57    1.39
  -3  -4  11    0.12    1.35
  -4  -3  11   -0.89    1.39
   7  -4  11    1.98    1.37
   7  -3  11    0.67    1.41
  -7   3  11   -0.61    1.42
  -7   4  11    1.37    1.45
   3   4  11   -1.59    1.45
   4   3  11    0.18    1.44
  -3   7  11    0.08    1.44
  -4   7  11    1.10    0.90
   7  -3 -11   -1.71    1.55
   7  -4 -11   -1.64    1.56
  -3   7 -11    0.59    1.36
  -4   7 -11   -0.97    1.35
   3   4 -11    1.23    0.79
  -7   4 -11    1.11    1.37
   4   3 -11   -0.95    1.32
   7  -4 -11   -0.69    1.34
  -4  -3 -11    0.16    1.36
  -3  -4 -11   -0.13    0.85
   3  -7 -11   -1.30    1.42
   4  -7 -11   -3.17    1.44
   4  -7  12    0.73    1.55
   3  -7  12   -1.78    1.60
  -3  -4  12    0.68    1.57
  -4  -3  12   -1.37    1.57
   7  -3  12    4.97    1.63
   7  -4  12    1.31    1.59
  -7   3  12    4.20    1.66
  -7   4  12   -0.70    1.04
   4   3  12    0.74    1.62
   3   4  12    0.46    1.63
  -3   7  12    1.36    1.68
  -4   7  12    3.32    1.64
   7  -3 -12    0.82    1.84
   7  -4 -12    0.37    1.83
  -4   7 -12    1.60    1.51
  -3   7 -12    1.93    1.51
   4   3 -12   -0.73    1.48
   3   4 -12   -0.94    0.94
  -7   4 -12    1.43    1.55
  -7   3 -12    1.29    1.55
   7  -3 -12    1.28    0.92
   7  -4 -12   -1.01    1.51
  -4  -3 -12   -1.72    1.55
  -3  -4 -12    0.87    1.57
   4  -7 -12    0.98    1.59
   3  -7 -12   -0.71    1.58
   3  -7  13   -1.37    1.70
   4  -7  13   -0.52    1.68
  -4  -3  13   -2.08    1.63
  -3  -4  13   -0.53    1.64
   7  -4  13    0.33    1.01
   7  -3  13    0.70    1.69
  -7   4  13    0.98    1.70
  -7   3  13    0.06    1.69
   4   3  13   -0.85    1.06
   3   4  13    1.12    1.71
  -4   7  13   -1.48    1.72
  -3   7  13   -1.21    1.76
   4   3 -13    1.07    1.09
   7  -3 -13   -0.23    1.95
   7  -4 -13    3.23    1.96
  -4   7 -13    0.31    1.56
  -3   7 -13    0.30    1.00
   4   3 -13    3.01    1.55
   3   4 -13    1.90    1.54
  -7   4 -13   -0.04    1.62
  -7   3 -13   -1.66    1.63
   7  -3 -13    1.08    1.57
   7  -4 -13   -1.03    1.56
  -4  -3 -13    0.17    1.58
  -3  -4 -13   -0.95    1.57
   4  -7 -13   -2.71    1.65
   3  -7 -13   -2.26    1.66
  -4  -4   0  306.35    9.30
  -8   4   0  308.60   10.15
  -4   8   0  279.85    7.17
   4   4   0  295.54    9.29
   4  -8   0  297.29    9.64
  -4  -4   0  297.32    9.16
   8  -4   0  311.27    7.96
  -4  -4   1  115.29    3.16
  -8   4   1  120.71    3.63
   4  -8   1  117.89    3.54
  -4  -4   1  119.47    3.29
   8  -4   1  123.36    2.69
   4   4  -1  123.49    4.00
  -4  -4  -1  117.60    3.02
   8  -4  -1  115.51    2.86
  -8   4  -1  123.53    3.77
   8  -4  -1  116.18    2.42
  -4  -4  -1  114.69    3.15
   4   4  -1  121.41    3.12
   4  -8  -1  120.82    3.60
  -4   8  -1  125.88    3.78
  -8   4  -1  119.26    2.52
   8  -4  -1  128.07    2.72
  -4  -4   2   96.12    2.81
  -8   4   2   98.50    3.08
   4  -8   2   94.59    2.97
  -4  -4   2   94.76    2.54
   8  -4   2   95.01    2.52
   4   4  -2   98.11    3.02
   8  -4  -2   97.31    2.44
  -4  -4  -2   96.40    2.54
  -4   8  -2  101.31    3.15
   4   4  -2  101.55    3.09
  -8   4  -2  100.31    2.42
   8  -4  -2  108.15    2.63
  -4  -4  -2  100.26    2.64
   4  -8  -2   98.68    3.06
  -8   4   3   11.50    0.98
   4  -8   3   11.94    0.95
  -4  -4   3   11.94    0.99
   8  -4   3   10.63    0.65
  -8   4   3   10.55    0.83
   4  -8  -3   11.44    0.60
   4   4  -3   11.23    0.91
   8  -4  -3   12.06    0.96
  -4   8  -3   11.39    1.00
   4   4  -3   11.28    0.76
  -8   4  -3   10.52    0.60
   8  -4  -3   12.02    0.84
  -4  -4  -3   11.52    0.79
   4  -8  -3   11.98    1.06
   4  -8   4   58.63    2.08
  -4  -4   4   54.37    1.87
   8  -4   4   53.32    1.85
  -8   4   4   53.28    1.89
   4   4   4   55.84    2.10
   4  -8  -4   58.57    1.59
   4   4  -4   59.42    2.20
   8  -4  -4   57.16    1.54
  -4   8  -4   57.85    2.16
   4   4  -4   60.38    1.98
  -8   4  -4   56.00    2.14
   8  -4  -4   56.01    1.80
  -4  -4  -4   58.39    2.03
   4  -8  -4   57.69    2.17
   4  -8   5   57.69    2.27
  -4  -4   5   52.12    2.10
   8  -4   5   52.10    2.14
  -8   4   5   49.24    2.17
   4   4   5   56.64    2.38
   4   4  -5   55.97    2.32
   8  -4  -5   54.46    2.19
  -4   8  -5   60.43    2.28
   4   4  -5   54.11    2.12
  -8   4  -5   55.13    2.08
   8  -4  -5   54.89    2.56
  -4  -4  -5   54.67    2.20
   4  -8  -5   57.59    2.33
   4  -8   6   30.29    1.75
  -4  -4   6   26.87    1.65
   8  -4   6   28.46    1.66
  -8   4   6   29.13    1.72
   4   4   6   29.48    1.79
  -4   8   6   32.77    1.89
   4   4  -6   31.88    1.26
   8  -4  -6   30.18    1.24
  -4   8  -6   34.02    1.29
   4   4  -6   30.56    1.66
  -8   4  -6   31.67    1.66
   8  -4  -6   32.54    1.65
  -4  -4  -6   28.22    1.73
   4  -8  -6   32.70    1.86
   4  -8   7   36.25    2.25
  -4  -4   7   36.02    2.19
   8  -4   7   37.55    2.23
  -8   4   7   38.14    2.29
   4   4   7   35.66    2.29
  -4   8   7   43.60    2.41
   4   4  -7   40.42    2.26
   8  -4  -7   38.93    2.33
  -4   8  -7   43.39    2.30
   4   4  -7   40.85    2.16
  -8   4  -7   41.15    2.27
   8  -4  -7   38.11    2.21
  -4  -4  -7   41.80    2.26
   4  -8  -7   45.18    2.40
   4  -8   8    8.44    1.41
  -4  -4   8    9.21    1.38
   8  -4   8   10.17    1.40
  -8   4   8    7.26    1.43
   4   4   8    8.73    1.42
  -4   8   8    8.65    1.56
   4   4  -8    8.43    1.37
   8  -4  -8    7.59    0.97
  -4   8  -8    9.16    0.90
   4   4  -8    9.45    1.29
  -8   4  -8    7.51    1.36
   8  -4  -8    7.11    1.33
  -4  -4  -8    8.66    0.88
   4  -8  -8    8.46    1.47
   4  -8   9   15.36    1.26
  -4  -4   9   14.97    1.23
   8  -4   9   16.90    1.91
  -8   4   9   17.18    1.93
   4   4   9   14.11    1.84
  -4   8   9   15.97    1.33
   4   4  -9   15.07    1.75
   8  -4  -9   15.73    2.03
  -4   8  -9   18.01    1.90
   4   4  -9   17.02    1.79
  -8   4  -9   17.85    1.83
   8  -4  -9   16.02    1.80
  -4  -4  -9   15.17    1.86
   4  -8  -9   16.36    1.91
   4  -8  10    9.22    1.81
  -4  -4  10    8.67    1.74
   8  -4  10   10.10    1.16
  -8   4  10   10.90    1.87
   4   4  10    9.14    1.82
  -4   8  10   14.04    1.93
   4   4 -10    9.21    1.09
   8  -4 -10    9.59    1.99
  -4   8 -10    9.89    1.78
   4   4 -10    8.53    1.72
  -8   4 -10    9.66    1.82
   8  -4 -10   10.27    1.72
  -4  -4 -10    8.68    1.80
   4  -8 -10   11.69    1.78
   4  -8  11    9.00    1.91
  -4  -4  11    7.73    1.85
   8  -4  11    7.16    1.93
  -8   4  11    8.67    1.98
   4   4  11    7.62    1.94
  -4   8  11    6.31    2.06
   4   4 -11    8.07    1.16
   8  -4 -11    7.93    2.19
  -4   8 -11    9.74    1.85
   4   4 -11    7.36    1.82
  -8   4 -11   10.59    1.85
   8  -4 -11   10.23    1.79
  -4  -4 -11    7.18    1.85
   4  -8 -11    8.79    1.88
   4  -8  12    7.04    1.90
  -4  -4  12    5.09    1.17
   8  -4  12    4.46    1.88
  -8   4  12    4.19    1.94
   4   4  12    3.84    1.93
  -4   8  12    5.38    2.05
   4   4 -12    3.16    1.86
   8  -4 -12    7.45    2.20
  -4   8 -12    3.68    1.84
   4   4 -12    6.14    1.77
  -8   4 -12    4.11    1.83
   8  -4 -12    4.82    1.75
  -4  -4 -12    2.24    1.81
   4  -8 -12    3.64    1.87
   4  -8  13    2.01    1.13
  -4  -4  13   -0.15    1.81
   8  -4  13    3.49    1.86
  -8   4  13   -0.29    1.92
   4   4  13    1.79    1.89
  -4   8  13    2.68    1.99
   4   4 -13    3.79    1.89
   8  -4 -13    2.07    2.24
  -4   8 -13    2.16    1.75
   4   4 -13    1.63    1.77
  -8   4 -13    1.65    1.10
   8  -4 -13    3.41    1.73
  -4  -4 -13    1.38    1.78
   4  -8 -13   -1.19    1.84
  -5   0   0  273.46    7.75
  -5   5   0  254.09    6.74
   5   0   0  267.12    7.62
   5  -5   0  252.52    6.74
   0  -5   0  260.03    7.25
  -5   5   1    2.58    0.39
  -5   0   1    2.71    0.61
   0  -5   1    4.03    0.55
   5  -5   1    3.28    0.44
   5   0  -1    2.83    0.64
   5  -5  -1    3.18    0.39
  -5   0  -1    4.33    0.59
  -5   5  -1    2.88    0.46
  -5   5   2   16.84    0.86
  -5   0   2   16.85    0.92
   0  -5   2   16.18    0.82
   5  -5   2   14.69    0.69
  -5   0   2   14.71    0.66
   5   0   2   14.50    0.52
   5   0  -2   16.59    0.88
   5  -5  -2   16.48    0.66
   0   5  -2   17.15    0.85
  -5   5  -2   15.79    0.71
   5   0  -2   14.88    0.48
  -5   0  -2   15.54    0.65
   5  -5  -2   15.70    0.72
   0  -5  -2   16.94    0.87
  -5   0   3    1.04    0.39
   0  -5   3    0.32    0.60
   5  -5   3    0.66    0.54
  -5   0   3    0.84    0.61
   5   0   3   -0.11    0.59
  -5   5   3    1.30    0.57
   5  -5  -3    0.09    0.66
   5   0  -3    0.55    0.63
   0   5  -3    1.85    0.61
  -5   5  -3    0.92    0.54
   5   0  -3    1.28    0.40
  -5   0  -3    1.43    0.46
   5  -5  -3    0.79    0.55
   0  -5  -3    0.92    0.65
   0  -5   4   17.05    1.06
   5  -5   4   16.86    0.98
  -5   0   4   15.36    0.95
   5   0   4   14.79    0.94
  -5   5   4   17.04    1.08
   0   5   4   17.53    1.13
   5  -5  -4   17.11    0.96
   5   0  -4   16.76    1.10
   0   5  -4   18.28    1.06
  -5   5  -4   17.19    1.00
   5   0  -4   15.24    1.12
  -5   0  -4   16.89    0.98
   5  -5  -4   17.79    1.04
   0  -5  -4   18.21    1.12
   0  -5   5    1.25    0.75
   5  -5   5    1.13    0.71
  -5   0   5    1.49    0.69
   5   0   5    2.05    0.70
  -5   5   5    1.88    0.73
   0   5   5    1.46    0.80
   5  -5  -5    1.78    0.68
   5   0  -5    2.07    0.77
   0   5  -5    1.96    0.75
  -5   5  -5    0.52    0.73
   5   0  -5    2.57    0.63
  -5   0  -5    2.29    0.69
   5  -5  -5    2.22    0.73
   0  -5  -5    1.32    0.50
   0  -5   6    3.63    0.89
   5  -5   6    2.57    0.86
  -5   0   6    3.93    0.85
   5   0   6    3.83    0.83
  -5   5   6    3.80    0.89
   0   5   6    2.92    0.56
   5   0  -6    3.96    0.88
   0   5  -6    2.42    0.85
  -5   5  -6    3.58    0.84
   5   0  -6    3.91    0.77
  -5   0  -6    3.23    0.84
   5  -5  -6    2.19    0.86
   0  -5  -6    4.15    0.90
   0  -5   7   -0.38    0.87
   5  -5   7   -0.05    0.85
  -5   5   7   -0.39    0.91
   0   5   7   -1.10    0.85
   5   0  -7   -0.87    0.87
   0   5  -7    0.27    0.85
  -5   5  -7   -0.24    0.86
   5   0  -7    1.81    0.77
  -5   0  -7    0.90    0.83
   5  -5  -7   -1.69    0.84
   0  -5  -7    0.55    0.88
   0  -5   8    5.05    1.27
   5  -5   8    5.52    1.23
  -5   0   8    7.00    1.24
   5   0   8    5.08    1.25
  -5   5   8    4.32    1.27
   0   5   8    6.16    1.27
   0   5  -8    6.46    1.21
  -5   5  -8    6.01    1.22
   5   0  -8    6.90    1.11
  -5   0  -8    5.22    1.22
   5  -5  -8    7.30    1.20
   0  -5  -8    4.36    1.30
   0  -5   9    0.69    1.19
  -5   0   9    4.43    1.24
   5   0   9    3.68    1.20
  -5   5   9   -0.61    1.27
   0   5   9   -1.02    1.23
   0   5  -9    1.30    0.72
  -5   5  -9    0.66    1.18
  -5   0  -9    2.45    1.15
   0  -5  -9    2.02    1.19
   0  -5  10    0.42    1.28
   5  -5  10    0.87    0.75
  -5   0  10    3.03    1.30
   5   0  10    2.31    1.26
  -5   5  10    0.31    1.30
   0   5  10   -1.38    1.30
   0   5 -10   -0.34    1.24
  -5   5 -10   -0.80    1.22
   5   0 -10    0.90    1.13
  -5   0 -10    1.20    1.23
   5  -5 -10   -0.04    1.22
   0  -5 -10   -0.59    1.27
   0  -5  11   -0.50    1.37
   5  -5  11   -1.70    1.42
  -5   0  11    1.94    1.43
   0   5  11    1.30    1.41
  -5   5  11   -1.29    1.47
   0   5 -11   -0.20    1.30
  -5   5 -11   -0.11    1.36
   5  -5 -11    0.36    1.38
   0  -5 -11   -1.68    1.40
   0  -5  12    0.07    1.56
   5  -5  12   -1.76    1.60
  -5   0  12    1.51    1.62
   5   0  12    2.07    1.56
   0   5  12    0.57    1.65
  -5   5  12    1.42    1.66
   0   5 -12    0.55    0.92
  -5   5 -12   -1.14    1.54
   5   0 -12    2.84    1.42
  -5   0 -12    1.70    0.92
   5  -5 -12    0.85    0.95
   0  -5 -12    0.28    1.52
   0  -5  13    0.38    1.70
   5  -5  13    0.52    1.68
  -5   0  13    2.52    1.66
   5   0  13   -0.23    1.67
   0   5  13    0.83    1.73
  -5   5  13    1.48    1.75
   5   0 -13    1.79    1.09
  -5   5 -13    0.29    1.62
   0   5 -13   -0.63    1.56
   5   0 -13    2.21    1.52
  -5   0 -13   -1.72    1.58
   5  -5 -13   -3.53    1.60
   0  -5 -13    1.44    1.64
   5  -5  14    1.03    1.84
   0  -5  14   -0.78    1.89
  -5   0  14    0.81    1.90
   5   0  14    1.79    1.89
  -5   5  14   -0.19    1.22
   0   5  14    2.53    1.86
   5   0 -14   -3.18    2.07
  -5   5 -14   -0.83    1.81
   0   5 -14    2.10    1.73
   5   0 -14    2.06    1.70
  -5   0 -14    0.38    1.72
   5  -5 -14    0.65    1.78
   0  -5 -14   -0.19    1.84
  -1  -5   0   14.86    0.52
  -5  -1   0   14.94    0.81
  -6   1   0   13.14    0.55
  -6   5   0   13.91    0.68
  -5   6   0   14.71    0.65
   1   5   0   13.45    0.56
   6  -1   0   12.61    0.55
   5   1   0   15.07    0.80
   5  -6   0   14.14    0.70
   1  -6   0   14.19    0.79
  -1  -5   0   13.53    0.71
   6  -5   0   13.89    0.54
  -5  -1   0   13.55    0.43
  -5   6   1    1.39    0.32
  -5  -1   1    2.28    0.58
  -6   5   1    2.08    0.48
  -6   1   1    2.48    0.62
   1  -6   1    2.24    0.59
   5  -6   1    1.17    0.49
  -1  -5   1    2.07    0.51
   6  -5   1    1.74    0.38
  -5  -1   1    1.60    0.29
  -6   1   1    1.37    0.21
   6  -1   1    1.28    0.22
   1   5  -1    1.64    0.47
   5   1  -1    1.60    0.61
  -1  -5  -1    1.65    0.26
   6  -1  -1    1.85    0.65
   6  -5  -1    1.77    0.45
  -5  -1  -1    1.46    0.35
  -6   1  -1    1.23    0.64
   5  -6  -1    1.62    0.32
  -1  -5  -1    1.82    0.51
   5  -6  -1    2.37    0.49
   1  -6  -1    1.93    0.59
   1   5  -1    1.88    0.55
  -5   6  -1    1.69    0.53
  -1   6  -1    2.08    0.62
  -6   5  -1    1.95    0.55
   5   1  -1    1.52    0.32
  -6   1  -1    1.22    0.21
  -5  -1  -1    1.59    0.33
   6  -5  -1    1.51    0.37
  -5   6   2    0.64    0.35
  -6   5   2    0.03    0.50
  -5  -1   2    0.53    0.38
  -6   1   2   -0.10    0.66
   1  -6   2    0.93    0.61
   5  -6   2    0.44    0.51
  -1  -5   2    0.96    0.54
   6  -5   2    0.32    0.58
  -5  -1   2    0.87    0.44
  -6   1   2    0.79    0.38
   6  -1   2    0.77    0.28
   5   1   2    0.57    0.47
   1   5  -2    0.45    0.44
   5  -6  -2    1.15    0.49
   5   1  -2   -0.07    0.62
   6  -1  -2    1.51    0.65
   6  -5  -2    1.79    0.50
  -1   6  -2    0.40    0.63
  -5   6  -2    0.92    0.33
   1   5  -2    0.79    0.57
  -6   5  -2    0.50    0.59
   5   1  -2    0.31    0.43
   6  -1  -2    0.96    0.34
  -6   1  -2    0.67    0.39
  -5  -1  -2    0.72    0.33
   6  -5  -2    0.97    0.43
   5  -6  -2    1.17    0.56
   1  -6  -2    0.71    0.65
  -1  -5  -2    0.23    0.59
  -5  -1   3    5.49    0.50
  -6   1   3    6.85    0.86
   1  -6   3    5.78    0.78
   5  -6   3    6.00    0.72
  -1  -5   3    6.52    0.75
   6  -5   3    5.46    0.64
  -5  -1   3    5.26    0.56
  -6   1   3    4.74    0.53
   6  -1   3    5.46    0.55
   5   1   3    5.60    0.60
  -6   5   3    5.04    0.67
   5  -6  -3    6.00    0.56
   6  -5  -3    6.69    0.67
   5   1  -3    6.09    0.79
   6  -1  -3    6.71    0.80
  -1   6  -3    7.16    0.81
  -5   6  -3    6.24    0.46
   1   5  -3    7.10    0.75
  -6   5  -3    6.36    0.66
   5   1  -3    5.65    0.54
   6  -1  -3    6.20    0.66
  -6   1  -3    5.95    0.54
  -5  -1  -3    5.19    0.58
   6  -5  -3    6.60    0.66
  -1  -5  -3    6.41    0.81
   5  -6  -3    6.36    0.74
   1  -6  -3    6.85    0.84
   1  -6   4   -0.06    0.40
  -1  -5   4    0.61    0.62
   5  -6   4    0.50    0.62
   6  -5   4   -0.07    0.57
  -5  -1   4   -0.29    0.55
  -6   1   4    0.63    0.52
   6  -1   4   -0.09    0.71
   5   1   4   -0.54    0.52
  -6   5   4    0.56    0.62
  -5   6   4    0.54    0.65
   1   5   4   -0.55    0.68
  -1   6   4    0.43    0.68
   5  -6  -4   -0.09    0.51
   5   1  -4    0.08    0.67
   6  -1  -4    0.90    0.67
   6  -5  -4    0.22    0.57
  -5   6  -4   -0.14    0.63
   1   5  -4   -0.14    0.64
  -1   6  -4    0.25    0.67
  -6   5  -4   -0.24    0.57
   5   1  -4    0.55    0.67
   6  -1  -4    0.77    0.48
  -6   1  -4    0.15    0.53
  -5  -1  -4    0.80    0.55
   6  -5  -4    0.20    0.58
   5  -6  -4    0.15    0.64
  -1  -5  -4   -0.11    0.66
   1  -6  -4   -0.43    0.70
   1  -6   5    0.62    0.76
  -1  -5   5    0.02    0.71
   5  -6   5    1.50    0.71
   6  -5   5    1.25    0.68
  -5  -1   5    0.20    0.68
  -6   1   5    1.00    0.67
   6  -1   5    1.33    0.64
   5   1   5    1.41    0.64
  -6   5   5    1.81    0.70
  -5   6   5    0.67    0.77
   1   5   5    1.46    0.78
  -1   6   5    0.20    0.80
   5  -6  -5    0.87    0.63
   5   1  -5    1.18    0.76
   6  -1  -5    1.16    0.75
   6  -5  -5    0.70    0.68
   1   5  -5    2.13    0.71
  -5   6  -5    0.57    0.71
  -1   6  -5    0.85    0.76
  -6   5  -5    1.41    0.69
   5   1  -5    1.04    0.62
   6  -1  -5    1.52    0.61
  -6   1  -5    1.64    0.65
   6  -5  -5    0.52    0.43
   5  -6  -5    1.31    0.73
  -1  -5  -5    0.55    0.76
   1  -6  -5    1.28    0.78
  -1  -5   6    1.12    0.80
   1  -6   6    0.18    0.82
   5  -6   6   -0.12    0.78
   6  -5   6    1.64    0.76
  -6   1   6    0.83    0.76
   6  -1   6    0.20    0.74
   5   1   6   -0.70    0.76
  -6   5   6    0.13    0.81
   1   5   6    0.81    0.82
  -5   6   6    0.05    0.82
  -1   6   6    1.14    0.86
   6  -5  -6    0.46    0.78
   6  -1  -6    0.33    0.83
   5   1  -6    0.69    0.81
  -1   6  -6   -0.09    0.80
   1   5  -6    1.26    0.76
  -5   6  -6    1.12    0.79
  -6   5  -6    2.11    0.76
   5   1  -6    0.52    0.96
   6  -1  -6    1.55    0.70
  -6   1  -6    0.12    0.76
  -5  -1  -6    1.49    0.78
   6  -5  -6    0.64    0.76
   5  -6  -6    1.68    0.81
   1  -6  -6   -0.90    0.87
  -1  -5  -6    1.03    0.83
   1  -6   7    2.70    0.63
  -1  -5   7    2.61    1.00
   5  -6   7    1.34    0.99
   6  -5   7    1.94    1.00
  -5  -1   7    2.69    0.95
  -6   1   7    4.70    1.00
   6  -1   7    1.93    0.97
   5   1   7    2.29    1.00
  -6   5   7    3.26    1.05
  -5   6   7    2.97    1.03
  -1   6   7    2.03    1.02
   1   5   7    2.55    0.63
   6  -5  -7    3.57    1.01
   5   1  -7    2.59    1.04
   6  -1  -7    2.48    0.66
   1   5  -7    3.09    0.96
  -1   6  -7    1.96    1.02
  -5   6  -7    1.69    1.01
  -6   5  -7    2.84    0.97
   5   1  -7    2.24    0.91
   6  -1  -7    5.35    0.91
  -6   1  -7    3.51    0.96
  -5  -1  -7    2.78    1.00
   6  -5  -7    3.23    0.60
   5  -6  -7    1.85    1.03
  -1  -5  -7    2.34    1.03
   1  -6  -7    2.49    1.07
  -1  -5   8   -0.57    1.08
   1  -6   8    1.10    0.68
   5  -6   8    1.44    1.08
   6  -5   8    0.52    0.66
  -5  -1   8    0.53    1.07
  -6   1   8    0.47    1.06
   6  -1   8    3.69    1.05
   5   1   8    1.37    0.64
  -6   5   8    0.96    1.11
  -5   6   8    0.88    1.12
  -1   6   8    0.19    0.70
   1   5   8    1.94    1.06
   5   1  -8    1.01    1.09
   6  -5  -8    3.23    1.09
   6  -1  -8    3.18    1.14
  -1   6  -8    1.58    1.06
   1   5  -8    1.63    1.04
  -5   6  -8    1.21    1.08
  -6   5  -8    1.84    1.03
   5   1  -8    0.55    0.99
   6  -1  -8    1.14    0.60
  -6   1  -8    0.88    1.03
  -5  -1  -8    0.09    1.07
   6  -5  -8    1.32    1.04
   5  -6  -8    0.39    1.07
   1  -6  -8    2.70    1.13
  -1  -5  -8    1.86    1.10
  -1  -5   9   -0.38    1.19
   1  -6   9   -1.43    1.20
   5  -6   9   -2.32    1.20
   6  -5   9    1.01    1.14
  -5  -1   9   -0.50    1.18
  -6   1   9    2.46    1.20
   6  -1   9    2.18    1.16
   5   1   9    0.06    1.20
  -6   5   9    2.07    1.21
   1   5   9   -1.34    1.21
  -5   6   9    0.17    1.24
  -1   6   9    0.02    1.20
   6  -1  -9    0.06    1.26
   5   1  -9    0.98    0.72
  -1   6  -9   -0.30    1.17
  -5   6  -9    1.53    0.70
   1   5  -9    1.67    1.13
  -6   5  -9   -0.17    1.16
   5   1  -9    1.00    1.06
  -6   1  -9    1.65    1.13
   6  -1  -9    2.46    1.08
  -5  -1  -9    0.01    1.18
   6  -5  -9    0.84    1.16
   5  -6  -9   -0.86    1.15
  -1  -5  -9    1.69    0.72
   1  -6  -9   -0.02    1.17
  -1  -5  10    1.78    1.26
   1  -6  10    1.10    1.29
   5  -6  10   -0.73    1.28
   6  -5  10   -0.60    1.26
  -5  -1  10   -1.73    1.31
   6  -1  10    0.00    1.25
   5   1  10   -0.96    1.30
  -6   5  10   -2.76    1.35
  -5   6  10   -1.22    1.37
   1   5  10   -0.08    1.29
  -1   6  10   -0.72    1.27
   6  -1 -10   -1.02    1.35
   5   1 -10    0.18    0.79
  -1   6 -10    1.93    1.21
  -5   6 -10    0.94    0.78
   1   5 -10    0.02    1.22
  -6   5 -10   -2.17    1.23
   5   1 -10    0.90    0.71
   6  -1 -10    2.13    1.15
  -6   1 -10    1.01    0.74
  -5  -1 -10   -2.06    1.25
   6  -5 -10    1.04    1.21
   5  -6 -10   -0.45    0.76
  -1  -5 -10    0.87    1.26
   1  -6 -10   -0.09    1.26
   1  -6  11   -2.13    1.42
  -1  -5  11   -0.83    1.36
   5  -6  11    0.79    0.85
   6  -5  11    0.15    0.84
  -5  -1  11   -0.81    1.40
   6  -1  11    2.17    1.40
  -6   1  11    2.71    1.44
   5   1  11   -1.22    1.42
  -6   5  11   -1.19    1.46
   1   5  11    0.87    1.44
  -1   6  11   -1.43    1.42
   6  -1 -11   -1.31    1.55
   5   1 -11    1.57    0.89
   1   5 -11   -0.18    1.33
  -5   6 -11   -0.58    0.85
  -1   6 -11   -2.12    1.38
  -6   5 -11   -1.62    1.37
   5   1 -11    0.20    1.30
   6  -1 -11    2.77    1.28
  -5  -1 -11   -0.76    1.37
   6  -5 -11   -0.18    1.34
   5  -6 -11   -2.42    1.39
  -1  -5 -11   -3.01    1.41
   1  -6 -11   -0.18    0.89
  -1  -5  12   -0.91    1.49
   1  -6  12    0.32    0.93
   5  -6  12   -0.36    1.52
   6  -5  12    1.14    1.56
  -5  -1  12   -0.91    1.54
   6  -1  12    1.08    1.56
  -6   1  12    1.41    0.96
   5   1  12    1.53    1.56
   1   5  12   -1.95    1.61
  -6   5  12   -1.70    1.62
  -5   6  12   -3.09    1.64
  -1   6  12    0.27    1.58
   6  -1 -12   -0.67    1.69
   5   1 -12    0.45    1.01
  -1   6 -12    0.60    1.45
  -5   6 -12    0.69    0.93
   1   5 -12   -1.24    1.47
  -6   5 -12   -0.97    1.49
   5   1 -12    0.29    1.44
   6  -1 -12    0.20    1.39
  -6   1 -12    2.71    1.45
  -5  -1 -12    1.21    1.48
   6  -5 -12    0.94    1.44
  -1  -5 -12   -0.16    1.49
   5  -6 -12    2.53    1.48
   1  -6 -12   -1.14    1.53
   1  -6  13    0.28    1.67
  -1  -5  13    1.05    1.04
   5  -6  13    2.25    1.66
   6  -5  13   -0.13    1.67
  -5  -1  13    1.62    1.65
  -6   1  13   -2.24    1.74
   6  -1  13    1.38    1.66
   5   1  13    2.40    1.65
  -6   5  13   -0.73    1.77
  -5   6  13   -0.49    1.79
   1   5  13   -2.42    1.67
  -1   6  13   -2.70    1.71
   6  -5 -13   -2.29    1.89
   6  -1 -13    0.52    1.90
   5   1 -13   -2.06    1.84
  -1   6 -13   -0.12    1.55
  -5   6 -13    0.41    1.58
   1   5 -13    0.45    1.53
  -6   5 -13   -1.84    1.60
   5   1 -13    2.11    1.48
   6  -1 -13    0.68    1.54
  -6   1 -13    1.05    1.55
  -5  -1 -13    1.41    1.59
   6  -5 -13   -0.88    1.56
  -1  -5 -13    2.03    1.64
   5  -6 -13    0.29    0.97
   1  -6 -13    0.96    1.64
  -2  -5   0  131.97    3.15
  -5  -2   0  132.50    3.53
  -7   2   0  132.78    3.15
  -5   7   0  133.72    2.99
  -7   5   0  131.79    3.50
   2   5   0  130.42    2.98
   5   2   0  129.93    3.58
  -2  -5   0  127.83    3.25
   2  -7   0  124.81    2.97
   5  -7   0  132.36    3.52
  -5  -2   0  134.29    2.94
   7  -5   0  130.59    2.79
  -2  -5   1   85.76    1.97
  -5   7   1   88.70    1.93
  -5  -2   1   82.77    2.34
  -7   2   1   87.32    2.63
  -7   5   1   87.71    2.40
   2  -7   1   84.89    2.49
   5  -7   1   84.08    2.35
  -2  -5   1   82.58    2.19
   7  -5   1   83.17    2.07
  -5  -2   1   82.56    1.67
   7  -2   1   82.19    1.44
   2   5  -1   87.43    2.14
  -2  -5  -1   85.68    2.06
   5   2  -1   86.54    2.57
   7  -2  -1   86.97    2.63
  -5  -2  -1   85.29    2.36
  -7   2  -1   88.81    2.67
   7  -5  -1   82.99    2.26
  -2  -5  -1   82.29    2.13
   7  -5  -1   80.54    1.77
   5  -7  -1   85.19    2.35
   2  -7  -1   83.64    2.48
  -7   5  -1   90.43    1.96
   5   2  -1   87.93    2.04
  -2   7  -1   88.94    2.65
  -5   7  -1   89.24    2.47
   2   5  -1   88.22    2.38
  -5  -2  -1   90.33    1.87
   7  -5  -1   81.69    1.80
  -5  -2   2  198.73    6.04
  -7   5   2  204.87    6.03
  -7   2   2  207.37    6.42
   2  -7   2  197.95    6.07
   5  -7   2  197.06    5.87
  -2  -5   2  192.80    5.65
   7  -5   2  193.28    5.66
  -5  -2   2  194.00    5.11
   7  -2   2  208.49    5.25
  -7   2   2  200.51    4.99
   2   5  -2  200.68    5.85
   5   2  -2  196.05    5.35
   7  -2  -2  198.20    6.16
   5  -7  -2  198.68    5.23
   7  -5  -2  203.13    5.98
   2   5  -2  204.01    6.04
  -2   7  -2  204.49    6.28
  -5   7  -2  203.85    6.10
  -7   5  -2  202.66    5.44
   5   2  -2  201.72    5.72
  -7   2  -2  202.29    5.01
   7  -2  -2  208.44    5.12
  -5  -2  -2  204.28    5.36
   7  -5  -2  199.03    5.34
  -2  -5  -2  201.43    5.96
   5  -7  -2  198.52    5.97
   2  -7  -2  198.54    6.14
  -7   2   3   19.81    1.23
  -7   5   3   19.62    1.03
   5  -7   3   18.46    1.04
   2  -7   3   19.96    1.13
  -2  -5   3   19.86    1.00
   7  -5   3   18.38    0.85
  -5  -2   3   18.64    0.82
   7  -2   3   19.42    0.99
  -7   2   3   19.03    0.76
  -7   5   3   19.15    0.91
   5   2   3   19.01    0.88
   2   5  -3   18.60    1.03
   5  -7  -3   18.95    0.73
   5   2  -3   19.25    1.12
   7  -2  -3   18.71    1.15
   7  -5  -3   20.09    1.04
  -2   7  -3   19.50    1.16
   2   5  -3   20.63    1.01
  -5   7  -3   19.56    1.09
  -7   5  -3   20.31    0.86
   5   2  -3   19.89    0.83
  -7   2  -3   19.42    0.92
   7  -2  -3   18.80    0.73
  -5  -2  -3   20.20    0.87
   7  -5  -3   19.31    0.88
  -2  -5  -3   19.93    1.08
   5  -7  -3   18.70    0.73
   2  -7  -3   19.66    1.23
   2  -7   4   82.00    2.70
   5  -7   4   79.68    2.59
  -2  -5   4   81.80    2.55
   7  -5   4   79.36    2.44
  -5  -2   4   76.67    2.40
   7  -2   4   76.32    2.44
  -7   2   4   79.23    2.50
   5   2   4   74.15    2.51
  -7   5   4   81.20    2.61
  -5   7   4   81.07    2.13
   2   5   4   80.71    2.71
   2   5  -4   83.75    2.70
   5  -7  -4   79.36    2.32
   5   2  -4   82.09    2.70
   7  -5  -4   78.28    2.50
   7  -2  -4   79.50    2.04
  -2   7  -4   85.09    2.74
  -5   7  -4   85.26    2.68
   2   5  -4   83.10    2.69
  -7   5  -4   80.58    2.47
   5   2  -4   82.09    2.79
  -7   2  -4   82.87    2.45
   7  -2  -4   83.43    2.43
  -5  -2  -4   81.74    2.51
   7  -5  -4   80.19    2.51
   5  -7  -4   82.28    2.66
  -2  -5  -4   80.20    2.61
   2  -7  -4   86.82    2.84
   2  -7   5   77.56    2.74
  -2  -5   5   76.65    2.61
   5  -7   5   75.72    2.67
  -5  -2   5   69.26    2.67
   7  -5   5   71.16    2.63
   7  -2   5   69.40    2.68
  -7   2   5   73.39    2.73
   5   2   5   70.32    2.72
  -7   5   5   73.42    2.72
   2   5   5   75.34    2.85
  -2   7   5   77.53    2.95
  -5   7   5   79.53    2.30
   5  -7  -5   76.27    2.58
   5   2  -5   75.33    2.16
   7  -5  -5   75.28    2.67
   7  -2  -5   78.35    2.17
  -5   7  -5   81.91    2.79
  -2   7  -5   83.07    2.84
   2   5  -5   78.49    2.73
  -7   5  -5   78.67    2.72
   5   2  -5   75.36    3.06
  -7   2  -5   74.99    2.66
   7  -2  -5   76.15    2.58
   7  -5  -5   74.82    2.71
  -5  -2  -5   77.02    2.70
  -2  -5  -5   83.10    2.86
   5  -7  -5   78.00    2.78
   2  -7  -5   80.64    2.88
   2  -7   6   57.02    2.34
   5  -7   6   57.60    1.79
  -2  -5   6   50.85    2.28
  -5  -2   6   50.53    2.33
   7  -5   6   49.87    2.32
   7  -2   6   49.33    2.34
  -7   2   6   52.25    2.43
  -7   5   6   51.97    2.44
   5   2   6   48.91    2.38
   2   5   6   57.61    2.49
  -5   7   6   59.07    2.58
  -2   7   6   58.21    2.50
   5   2  -6   56.82    2.41
   7  -2  -6   56.97    2.43
   7  -5  -6   54.69    1.80
  -5   7  -6   61.38    1.81
   2   5  -6   58.58    2.31
  -2   7  -6   58.05    2.44
  -7   5  -6   54.46    2.36
   5   2  -6   56.70    2.28
  -7   2  -6   56.39    2.32
   7  -2  -6   55.97    2.28
  -5  -2  -6   53.96    2.31
   7  -5  -6   54.40    2.32
  -2  -5  -6   62.30    2.45
   5  -7  -6   56.77    2.47
   2  -7  -6   57.95    1.89
   2  -7   7   37.15    2.11
   5  -7   7   37.29    1.47
  -2  -5   7   35.57    2.09
   7  -5   7   33.85    2.09
  -5  -2   7   35.10    2.09
   7  -2   7   39.31    2.14
  -7   2   7   37.31    2.17
   5   2   7   32.28    2.10
  -7   5   7   36.03    2.19
   2   5   7   35.01    2.14
  -2   7   7   38.46    2.24
  -5   7   7   38.17    2.25
   7  -5  -7   37.47    2.23
   5   2  -7   37.61    2.13
   7  -2  -7   36.53    2.16
  -2   7  -7   37.13    2.12
   2   5  -7   37.23    2.03
  -5   7  -7   38.27    2.12
   5   2  -7   36.57    2.01
  -7   5  -7   39.93    2.10
  -7   2  -7   37.98    2.09
   7  -2  -7   36.61    1.98
  -5  -2  -7   36.04    2.13
   7  -5  -7   35.89    2.01
   5  -7  -7   39.98    2.17
  -2  -5  -7   40.19    2.15
   2  -7  -7   39.97    2.21
   2  -7   8    2.32    1.19
  -2  -5   8    2.02    1.15
   5  -7   8    2.74    0.71
   7  -5   8    2.01    1.13
  -5  -2   8    3.87    1.11
   7  -2   8    2.60    1.14
  -7   2   8    3.02    1.18
   5   2   8    3.15    1.14
  -7   5   8    2.52    1.18
   2   5   8    2.20    0.72
  -5   7   8    1.41    1.21
  -2   7   8    2.88    1.25
   7  -5  -8    2.63    0.76
   7  -2  -8    3.72    1.26
   5   2  -8    2.64    1.17
  -2   7  -8    4.81    1.16
   2   5  -8    2.31    1.09
  -5   7  -8    1.93    1.17
  -7   5  -8    3.16    1.13
   5   2  -8    3.31    1.04
  -7   2  -8    3.03    1.11
   7  -2  -8    3.18    1.08
  -5  -2  -8    2.12    1.14
   7  -5  -8    2.37    1.12
   5  -7  -8    1.63    1.20
  -2  -5  -8    2.52    1.17
   2  -7  -8    2.94    1.22
   2  -7   9   12.37    1.76
  -2  -5   9   13.81    1.72
   5  -7   9   13.39    1.72
   7  -5   9   11.65    1.68
  -5  -2   9   12.37    1.67
   7  -2   9   11.86    1.74
  -7   2   9   12.93    1.77
   5   2   9   13.05    1.73
  -7   5   9   12.36    1.81
  -5   7   9   12.19    1.78
   2   5   9   10.64    1.73
  -2   7   9   13.79    1.83
   5   2  -9   13.32    1.77
   7  -2  -9   13.45    1.89
   7  -5  -9   15.07    1.88
  -5   7  -9   13.29    1.72
   2   5  -9   13.20    1.62
  -2   7  -9   11.94    1.75
   5   2  -9   13.62    1.63
  -7   5  -9   14.37    1.72
  -7   2  -9   14.67    1.65
   7  -2  -9   14.26    1.62
  -5  -2  -9   14.61    1.71
   7  -5  -9   16.45    1.66
  -2  -5  -9   13.00    1.11
   5  -7  -9   12.31    1.72
   2  -7  -9   14.33    1.21
   2  -7  10   16.60    2.01
  -2  -5  10   11.29    1.92
   5  -7  10   12.86    1.96
   7  -5  10   14.99    1.97
  -5  -2  10   12.83    1.97
   7  -2  10   15.12    2.02
  -7   2  10   17.14    2.02
   5   2  10   16.39    1.96
  -7   5  10   12.77    2.04
  -5   7  10   16.14    1.36
  -2   7  10   14.27    2.02
   2   5  10   11.55    1.97
   5   2 -10   14.95    1.96
   7  -5 -10   16.64    2.18
   7  -2 -10   13.99    1.42
  -5   7 -10   15.21    1.92
  -2   7 -10   14.84    1.92
   2   5 -10   13.34    1.90
  -7   5 -10   15.48    1.94
   5   2 -10   13.19    1.85
  -7   2 -10   15.67    1.91
   7  -2 -10   17.55    1.90
  -5  -2 -10   15.98    1.97
   7  -5 -10   14.17    1.89
  -2  -5 -10   14.68    1.95
   5  -7 -10   13.31    1.92
   2  -7 -10   11.90    1.94
   5  -7  11    8.00    1.90
   2  -7  11    8.19    1.96
  -2  -5  11    7.91    1.81
   7  -5  11    7.48    1.90
  -5  -2  11    8.50    1.85
  -7   2  11    8.86    1.98
   7  -2  11    8.03    1.93
   5   2  11    8.16    1.90
  -7   5  11    9.67    2.00
   2   5  11   10.02    1.88
  -5   7  11   10.00    1.26
  -2   7  11    7.97    1.96
   5   2 -11   10.95    1.94
   7  -5 -11    7.66    2.14
   7  -2 -11    8.18    2.09
  -5   7 -11    9.66    1.88
  -2   7 -11    8.51    1.19
   2   5 -11    8.36    1.81
  -7   5 -11    8.37    1.86
   5   2 -11    8.55    1.14
  -7   2 -11    9.17    1.84
   7  -2 -11   10.84    1.78
   7  -5 -11    9.83    1.16
  -5  -2 -11   10.04    1.84
  -2  -5 -11   10.66    1.87
   2  -7 -11    9.35    1.96
   5  -7 -11    8.71    1.86
   2  -7  12    6.06    1.92
  -2  -5  12    6.04    1.86
   5  -7  12    5.92    1.21
  -5  -2  12    8.55    1.91
   7  -5  12    6.34    1.91
   7  -2  12    7.69    1.24
  -7   2  12    6.03    1.96
   5   2  12    6.79    1.96
  -7   5  12    5.97    2.02
  -2   7  12    5.76    1.98
   2   5  12    4.44    1.92
  -5   7  12    4.92    1.27
   5   2 -12    7.23    2.02
   7  -2 -12    6.53    2.17
   7  -5 -12    6.34    2.22
   2   5 -12    6.43    1.82
  -2   7 -12    6.00    1.83
  -5   7 -12    6.54    1.85
  -7   5 -12    6.00    1.92
   5   2 -12    6.64    1.76
  -7   2 -12    8.45    1.85
   7  -2 -12    6.15    1.82
   7  -5 -12    6.41    1.79
  -5  -2 -12    3.98    1.88
  -2  -5 -12    2.81    1.94
   5  -7 -12    8.45    1.89
   2  -7 -12    5.85    1.96
   2  -7  13    1.47    1.81
  -2  -5  13   -0.20    1.12
   5  -7  13    2.40    1.79
   7  -5  13    2.99    1.76
  -5  -2  13    0.84    1.77
   7  -2  13    2.92    1.82
  -7   2  13    1.14    1.12
   5   2  13   -2.33    1.82
  -7   5  13    0.84    1.89
  -5   7  13    1.56    1.88
   2   5  13    2.61    1.81
  -2   7  13    1.49    1.86
   5   2 -13    0.34    1.90
   7  -5 -13   -0.36    2.14
   7  -2 -13    3.00    1.26
   2   5 -13   -0.66    1.61
  -2   7 -13    3.13    1.68
  -5   7 -13    0.07    1.74
  -7   5 -13    2.03    1.70
   5   2 -13    2.15    1.63
  -7   2 -13   -0.21    1.74
   7  -2 -13    2.09    1.64
   7  -5 -13    2.03    1.65
  -5  -2 -13   -0.74    1.67
  -2  -5 -13    1.08    1.75
   2  -7 -13    0.43    1.10
   5  -7 -13    2.70    1.71
  -3  -5   0   31.42    0.92
  -5  -3   0   31.15    1.19
  -8   5   0   32.61    1.35
  -8   3   0   33.09    1.46
  -5   8   0   28.75    0.76
   5   3   0   30.50    1.23
   3   5   0   28.05    0.97
   5  -8   0   32.77    1.32
   3  -8   0   30.32    1.35
  -3  -5   0   31.11    1.03
  -5  -3   0   28.19    0.75
   8  -5   0   31.01    0.86
  -3  -5   1    3.32    0.53
  -5   8   1    3.39    0.35
  -5  -3   1    3.61    0.66
  -8   5   1    4.44    0.76
  -8   3   1    3.84    0.83
   3  -8   1    2.98    0.80
   5  -8   1    4.29    0.73
  -3  -5   1    3.76    0.58
  -5  -3   1    4.13    0.57
   8  -5   1    3.50    0.48
   8  -3   1    2.99    0.31
   3   5  -1    2.90    0.59
  -3  -5  -1    3.67    0.47
   5   3  -1    3.78    0.73
  -5  -3  -1    3.87    0.64
   8  -5  -1    4.50    0.71
  -8   5  -1    3.25    0.80
   8  -3  -1    3.93    0.82
  -8   3  -1    2.96    0.53
  -5  -3  -1    3.37    0.53
   5  -8  -1    4.01    0.74
   3  -8  -1    3.78    0.80
   5   3  -1    3.38    0.45
   8  -5  -1    3.43    0.46
  -3   8  -1    4.24    0.84
   3   5  -1    3.47    0.63
  -3  -5  -1    3.10    0.75
  -5   8  -1    4.10    0.79
  -8   5  -1    3.23    0.37
   8  -3  -1    2.76    0.29
   8  -5  -1    3.32    0.48
  -5  -3  -1    3.49    0.58
  -5  -3   2    1.42    0.64
  -8   5   2    1.02    0.67
  -8   3   2    1.10    0.75
   3  -8   2    0.70    0.70
   5  -8   2    0.94    0.67
  -3  -5   2    1.27    0.55
  -5  -3   2    0.35    0.42
   8  -5   2    0.76    0.52
   8  -3   2    0.31    0.41
  -8   3   2    0.78    0.36
   3   5  -2    0.35    0.58
   5   3  -2    0.69    0.67
   5  -8  -2    0.50    0.34
   8  -3  -2    1.83    0.75
   8  -5  -2    0.69    0.66
  -3  -5  -2    0.51    0.42
  -5  -3  -2    1.01    0.57
  -5   8  -2    0.95    0.71
  -3   8  -2    0.76    0.75
   5   3  -2    1.05    0.43
   3   5  -2    1.15    0.57
  -8   5  -2    1.02    0.38
  -8   3  -2    0.55    0.35
   8  -3  -2    0.54    0.38
   8  -5  -2    0.61    0.53
  -5  -3  -2    1.76    0.59
  -3  -5  -2    1.26    0.60
   3  -8  -2    0.50    0.46
   5  -8  -2    1.01    0.69
  -8   5   3    5.58    0.80
  -8   3   3    4.60    0.89
   3  -8   3    5.66    0.84
   5  -8   3    4.99    0.79
  -3  -5   3    4.98    0.92
  -5  -3   3    4.70    0.59
   8  -5   3    4.86    0.56
   8  -3   3    4.75    0.66
  -8   3   3    4.69    0.63
  -8   5   3    4.46    0.55
   3   5  -3    4.98    0.76
   5  -8  -3    5.41    0.43
   5   3  -3    5.52    0.80
   8  -3  -3    6.72    0.86
   8  -5  -3    6.01    0.79
  -5   8  -3    6.69    0.83
  -3   8  -3    6.76    0.87
   3   5  -3    5.70    0.71
   5   3  -3    4.72    0.58
  -8   5  -3    5.34    0.74
  -8   3  -3    5.91    0.62
   8  -3  -3    5.89    0.65
   8  -5  -3    5.36    0.77
  -5  -3  -3    5.38    0.61
  -3  -5  -3    5.31    0.74
   5  -8  -3    5.97    0.86
   3  -8  -3    6.17    0.59
   5  -8   4    2.66    0.78
   3  -8   4    2.57    0.52
  -3  -5   4    3.00    0.70
  -5  -3   4    2.30    0.63
   8  -5   4    1.24    0.62
   8  -3   4    2.16    0.60
  -8   3   4    2.23    0.77
  -8   5   4    1.59    0.88
   5   3   4    2.87    0.69
   5  -8  -4    1.82    0.66
   3   5  -4    3.13    0.77
   5   3  -4    2.60    0.80
   8  -3  -4    3.55    0.49
   8  -5  -4    2.72    0.46
  -3   8  -4    2.72    0.51
  -5   8  -4    3.52    0.80
   3   5  -4    3.25    0.44
   5   3  -4    2.90    0.62
  -8   5  -4    2.40    0.59
  -8   3  -4    3.24    0.55
   8  -3  -4    2.84    0.58
   8  -5  -4    2.95    0.60
  -5  -3  -4    2.87    0.67
  -3  -5  -4    2.95    0.74
   3  -8  -4    2.55    0.87
   5  -8  -4    3.74    0.80
   3  -8   5    0.93    0.85
   5  -8   5    2.26    0.81
  -3  -5   5    1.76    0.73
  -5  -3   5    0.70    0.70
   8  -5   5    0.94    0.71
   8  -3   5    1.88    0.98
  -8   3   5    1.25    0.70
  -8   5   5   -0.17    0.75
   5   3   5    1.45    0.79
   3   5   5    0.88    0.83
  -5   8   5    2.26    0.54
   3   5  -5    1.80    0.52
   5  -8  -5    0.10    0.62
   5   3  -5    2.38    0.83
   8  -3  -5    1.12    0.80
   8  -5  -5    1.74    0.78
  -3   8  -5    2.11    0.54
  -5   8  -5    0.77    0.83
   3   5  -5    1.48    0.77
   5   3  -5    1.45    0.68
  -8   5  -5    0.71    0.71
  -8   3  -5    1.41    0.68
   8  -3  -5    1.75    0.68
   8  -5  -5    0.10    0.71
  -5  -3  -5    1.68    0.75
  -3  -5  -5    2.66    0.80
   5  -8  -5    1.17    0.83
   3  -8  -5    1.09    0.89
   3  -8   6    0.30    0.89
   5  -8   6    0.95    0.88
  -3  -5   6    1.29    0.81
  -5  -3   6    0.12    0.81
   8  -5   6    0.32    0.83
  -8   3   6    0.50    0.82
  -8   5   6    0.73    0.84
   5   3   6    0.30    0.87
   3   5   6    1.74    0.93
  -3   8   6    0.25    0.97
  -5   8   6    0.30    0.94
   3   5  -6    0.49    0.87
   5   3  -6    0.79    0.87
   8  -3  -6    1.52    0.91
   8  -5  -6    0.95    0.55
  -3   8  -6    0.05    0.94
  -5   8  -6    1.82    0.56
   3   5  -6    0.48    0.82
   5   3  -6   -0.23    0.78
  -8   5  -6    0.11    0.83
  -8   3  -6    0.78    0.79
   8  -3  -6    2.04    0.75
   8  -5  -6   -0.30    0.80
  -5  -3  -6    0.11    0.85
  -3  -5  -6    1.64    0.88
   5  -8  -6    0.94    0.92
   3  -8  -6    0.56    0.95
   3  -8   7   -0.64    1.02
   5  -8   7    0.11    0.97
  -3  -5   7    0.17    0.96
  -5  -3   7   -1.43    0.96
   8  -5   7   -2.07    1.00
   8  -3   7    2.24    0.99
   5   3   7    0.62    0.97
   3   5   7    0.21    1.02
  -5   8   7   -0.14    1.04
  -3   8   7   -0.46    1.02
   5   3  -7   -0.95    1.00
   8  -5  -7    0.40    1.01
   8  -3  -7   -0.14    1.02
  -3   8  -7    0.07    1.03
  -5   8  -7   -0.76    1.00
   3   5  -7    0.46    0.90
   5   3  -7    1.39    0.91
   8  -3  -7    2.03    0.93
  -5  -3  -7   -0.98    0.95
  -3  -5  -7    0.56    0.96
   5  -8  -7    0.33    0.63
   3  -8  -7    0.78    1.07
   5  -8   8    1.59    1.15
   3  -8   8    1.47    0.74
  -3  -5   8    2.16    1.12
  -5  -3   8    1.63    1.11
   8  -5   8    1.68    1.11
   8  -3   8    1.56    1.12
  -8   3   8    1.67    1.15
  -8   5   8   -0.10    1.20
   5   3   8    2.39    1.15
   3   5   8    0.82    1.16
  -5   8   8    3.21    1.27
  -3   8   8    1.43    1.29
   5   3  -8    1.50    1.16
   8  -3  -8    2.86    1.24
   8  -5  -8    3.22    1.23
  -5   8  -8    3.07    0.72
  -3   8  -8    2.78    1.17
   3   5  -8    0.29    1.10
   5   3  -8    3.42    1.09
  -8   5  -8    1.73    1.11
  -8   3  -8    2.89    1.11
   8  -3  -8    3.00    1.08
   8  -5  -8    1.16    1.09
  -5  -3  -8    0.30    1.13
  -3  -5  -8    1.73    1.18
   3  -8  -8    0.60    1.23
   5  -8  -8    2.07    0.73
   3  -8   9    1.53    1.30
   5  -8   9    0.70    1.29
  -3  -5   9    1.81    1.27
  -5  -3   9    2.25    1.25
   8  -5   9    0.64    1.34
   8  -3   9    5.70    1.35
  -8   3   9    3.63    1.36
  -8   5   9    0.73    1.39
   5   3   9    2.22    1.32
   3   5   9    1.45    1.27
  -5   8   9    1.94    0.89
  -3   8   9    3.26    1.41
   5   3  -9    0.93    1.28
   8  -3  -9    1.99    1.40
   8  -5  -9    1.34    1.42
  -3   8  -9    1.91    0.81
  -5   8  -9    1.09    1.28
   3   5  -9    1.69    0.77
   5   3  -9    0.11    1.23
  -8   5  -9    0.72    1.29
  -8   3  -9    3.65    1.31
   8  -3  -9    2.82    1.25
   8  -5  -9    1.01    1.28
  -5  -3  -9    0.11    1.30
  -3  -5  -9    1.04    1.27
   3  -8  -9    2.09    1.37
   5  -8  -9    0.62    0.84
   5  -8  10   -0.64    1.34
   3  -8  10   -0.98    1.35
  -3  -5  10    1.33    1.31
  -5  -3  10   -1.68    1.30
   8  -5  10   -1.60    1.37
   8  -3  10    3.86    1.38
   5   3  10    1.77    1.38
  -8   5  10    0.24    1.45
   3   5  10    0.72    1.33
  -3   8  10    0.64    0.88
  -5   8  10    0.26    1.44
   8  -5 -10    0.29    1.54
   5   3 -10    0.06    1.33
   8  -3 -10    1.27    1.45
  -5   8 -10   -0.92    1.31
  -3   8 -10    0.94    1.33
   3   5 -10    0.66    1.25
   5   3 -10   -2.44    1.30
  -8   5 -10    1.46    1.32
  -8   3 -10    1.70    1.32
   8  -3 -10    3.48    1.31
   8  -5 -10   -0.36    1.28
  -5  -3 -10   -1.68    1.33
  -3  -5 -10   -0.45    1.35
   5  -8 -10   -1.24    1.32
   3  -8 -10    0.26    1.38
   3  -8  11   -0.94    1.55
   5  -8  11   -1.99    1.48
  -3  -5  11   -0.27    1.44
  -5  -3  11    1.05    0.90
   8  -5  11    2.14    1.49
   8  -3  11    2.98    1.55
  -8   3  11    2.33    1.56
  -8   5  11    0.00    1.60
   5   3  11   -0.01    1.57
   3   5  11    2.94    0.92
  -5   8  11   -3.17    1.63
  -3   8  11    1.22    1.58
   8  -5 -11   -0.09    1.72
   5   3 -11    2.13    1.50
   8  -3 -11   -0.90    1.69
  -3   8 -11   -0.81    1.47
   3   5 -11    0.57    1.40
  -5   8 -11    0.57    1.46
   5   3 -11   -1.77    1.41
  -8   5 -11    1.54    1.50
  -8   3 -11    2.36    1.49
   8  -3 -11    1.78    1.41
   8  -5 -11    1.88    1.44
  -5  -3 -11   -1.64    1.44
  -3  -5 -11    0.28    1.48
   5  -8 -11   -0.32    1.48
   3  -8 -11   -0.48    1.50
   3  -8  12   -1.01    1.68
  -3  -5  12    1.41    1.56
   5  -8  12   -0.53    1.59
  -5  -3  12    0.80    1.59
   8  -5  12   -0.55    1.60
   8  -3  12    3.71    1.66
  -8   3  12    3.24    1.68
  -8   5  12    0.84    1.74
   5   3  12   -1.23    1.67
   3   5  12    2.25    1.02
  -5   8  12    0.17    1.72
  -3   8  12   -3.22    1.76
   5   3 -12   -0.79    1.66
   8  -5 -12   -0.17    1.95
   8  -3 -12    4.11    1.85
  -3   8 -12    1.25    1.56
   3   5 -12    1.69    1.51
  -5   8 -12   -1.43    1.58
   5   3 -12    0.54    0.96
  -8   5 -12    1.15    1.61
  -8   3 -12    0.22    1.59
   8  -3 -12    1.39    1.57
   8  -5 -12    1.07    1.51
  -5  -3 -12    1.03    1.57
  -3  -5 -12    0.62    1.57
   3  -8 -12   -1.10    1.01
   5  -8 -12   -0.92    1.63
   3  -8  13   -0.08    1.80
   5  -8  13    1.83    1.76
  -3  -5  13    1.44    1.78
  -5  -3  13   -0.25    1.75
   8  -5  13    1.58    1.79
   8  -3  13    2.51    1.81
  -8   3  13    0.70    1.84
  -8   5  13    3.09    1.91
   5   3  13   -1.42    1.84
   3   5  13    2.35    1.82
  -3   8  13    1.02    1.17
  -5   8  13   -1.05    1.96
   8  -5 -13   -0.27    2.18
   5   3 -13    1.84    1.89
   8  -3 -13    2.07    2.05
  -3   8 -13    1.50    1.70
   3   5 -13   -1.90    1.64
  -5   8 -13   -1.72    1.76
  -8   5 -13    1.79    1.78
   5   3 -13   -0.61    1.67
  -8   3 -13    1.74    1.75
   8  -3 -13   -1.27    1.68
   8  -5 -13    2.34    1.63
  -5  -3 -13    1.63    1.68
  -3  -5 -13    1.90    1.71
   3  -8 -13   -0.14    1.80
   5  -8 -13    0.85    1.09
  -4  -5   0   12.47    0.69
  -5  -4   0   13.88    0.79
  -9   5   0   13.75    1.01
  -9   4   0   13.07    1.07
   4  -9   0   12.76    0.98
  -4  -5   0   12.01    0.66
   5  -9   0   13.20    0.96
  -5  -4   0   12.98    0.56
   9  -5   0   13.96    0.58
   9  -4   0   12.55    0.34
  -4  -5   1   15.99    0.82
  -5  -4   1   16.62    0.93
  -9   4   1   17.49    1.14
  -9   5   1   17.85    1.10
   4  -9   1   17.72    1.10
   5  -9   1   17.05    1.05
  -4  -5   1   15.89    0.76
  -5  -4   1   16.62    0.70
   9  -5   1   16.58    0.62
   9  -4   1   16.39    0.49
  -4  -5  -1   16.91    0.73
   4   5  -1   15.48    0.89
  -5  -4  -1   16.58    0.84
   5   4  -1   16.04    0.98
  -9   4  -1   16.57    1.19
   9  -4  -1   18.12    1.12
  -9   5  -1   15.77    1.14
   9  -5  -1   16.72    1.03
   4   5  -1   17.02    0.82
  -4   9  -1   18.07    1.20
  -5   9  -1   19.17    1.14
   5   4  -1   16.66    0.73
  -4  -5  -1   16.32    0.73
   5  -9  -1   18.54    1.07
   4  -9  -1   17.13    1.09
   9  -5  -1   14.81    0.56
  -5  -4  -1   15.66    0.65
   9  -4  -1   16.82    0.50
   9  -5  -1   17.42    0.61
  -5  -4  -1   16.50    0.71
  -4  -5   2   34.53    1.37
  -5  -4   2   35.70    1.49
  -9   5   2   40.07    1.60
  -9   4   2   41.65    1.65
   4  -9   2   38.63    1.60
   5  -9   2   38.80    1.57
  -4  -5   2   36.90    1.27
  -5  -4   2   37.52    1.17
   9  -5   2   39.15    1.24
   9  -4   2   39.17    1.13
   4   5  -2   38.39    1.51
   5   4  -2   35.57    1.56
   9  -5  -2   39.50    1.60
   9  -4  -2   39.63    1.68
  -4  -5  -2   38.99    1.18
  -5  -4  -2   41.25    1.66
   4   5  -2   41.38    1.71
  -5   9  -2   41.60    1.69
  -4   9  -2   42.21    1.71
   5   4  -2   38.43    1.25
  -9   5  -2   40.22    1.20
  -9   4  -2   36.28    1.03
   9  -4  -2   38.63    1.11
   9  -5  -2   40.19    1.26
  -5  -4  -2   38.57    1.49
  -4  -5  -2   40.59    1.65
   5  -9  -2   36.99    1.13
  -9   5   3    6.67    0.86
  -9   4   3    7.11    0.58
   4  -9   3    6.67    0.55
   5  -9   3    6.74    0.85
  -4  -5   3    4.99    0.71
  -5  -4   3    6.02    0.64
   9  -5   3    4.95    0.55
   9  -4   3    4.91    0.71
  -9   4   3    5.15    0.49
   4  -9  -3    5.18    0.40
   4   5  -3    4.75    0.83
   5   4  -3    6.25    0.85
   5  -9  -3    5.03    0.49
   9  -4  -3    6.45    0.89
   9  -5  -3    6.67    0.87
  -4   9  -3    7.24    0.60
  -5   9  -3    7.15    0.89
   4   5  -3    6.60    0.72
   5   4  -3    5.65    0.66
  -9   5  -3    4.20    0.52
  -9   4  -3    5.23    0.61
   9  -4  -3    5.51    0.69
   9  -5  -3    5.29    0.74
  -5  -4  -3    5.75    0.65
  -4  -5  -3    6.05    0.72
   5  -9  -3    6.73    0.93
   4  -9  -3    7.30    0.98
  -9   4   4    9.57    1.00
  -9   5   4    8.38    0.96
   5  -9   4    8.99    0.99
   4  -9   4    8.72    1.00
  -4  -5   4    7.36    0.82
  -5  -4   4    6.97    1.03
   9  -5   4    6.68    0.78
   9  -4   4    6.71    0.72
  -9   4   4    5.54    0.91
  -9   5   4    8.27    0.76
   4  -9  -4    7.07    0.68
   5  -9  -4    8.06    0.75
   4   5  -4    8.89    0.98
   5   4  -4    6.67    1.00
   9  -5  -4    9.00    0.98
   9  -4  -4    8.20    0.99
  -4   9  -4   10.04    1.02
  -5   9  -4    8.94    1.02
   4   5  -4    8.69    0.85
   5   4  -4    7.63    0.78
  -9   5  -4    7.02    0.92
  -9   4  -4    7.91    0.68
   9  -4  -4    7.81    0.74
   9  -5  -4    7.14    0.75
  -5  -4  -4    8.69    0.84
  -4  -5  -4    7.58    0.89
   4  -9  -4    9.81    1.06
   5  -9  -4    8.67    1.00
   4  -9   5   15.48    0.85
   5  -9   5   15.56    1.28
  -4  -5   5   14.74    1.15
  -5  -4   5   13.93    1.13
   9  -5   5   13.91    1.15
   9  -4   5   13.42    1.10
  -9   4   5   10.82    1.41
  -9   5   5   12.72    1.11
   5   4   5   14.78    1.24
   4   5   5   13.51    1.26
   5  -9  -5   14.18    1.23
   4   5  -5   15.27    1.33
   5   4  -5   15.00    1.36
   9  -5  -5   15.15    1.26
   9  -4  -5   14.74    1.26
  -5   9  -5   17.49    1.31
  -4   9  -5   17.15    1.35
   4   5  -5   15.37    1.22
   5   4  -5   15.33    1.14
  -9   5  -5   13.11    1.06
  -9   4  -5   13.04    1.04
   9  -4  -5   14.75    1.41
   9  -5  -5   13.30    1.08
  -5  -4  -5   15.75    1.19
  -4  -5  -5   15.60    1.21
   5  -9  -5   16.70    0.88
   4  -9  -5   17.74    1.37
   4  -9   6    8.91    1.21
   5  -9   6    7.22    1.18
  -4  -5   6    5.80    1.09
  -5  -4   6    6.63    1.06
   9  -5   6    5.97    1.11
   9  -4   6    6.50    1.09
  -9   4   6    5.77    1.07
  -9   5   6    4.97    1.11
   5   4   6    6.57    1.20
   4   5   6    6.89    1.20
   5  -9  -6    5.75    0.98
   5   4  -6    7.55    1.23
   4   5  -6    7.78    1.20
   9  -5  -6    7.60    1.17
   9  -4  -6    8.17    0.77
  -4   9  -6    7.28    0.77
  -5   9  -6    7.17    1.21
   4   5  -6    7.94    1.11
   5   4  -6    7.74    1.04
  -9   5  -6    4.55    1.07
  -9   4  -6    8.97    1.37
   9  -4  -6    8.13    1.06
   9  -5  -6    5.21    1.45
  -5  -4  -6    7.26    1.10
  -4  -5  -6    6.50    1.14
   5  -9  -6    8.79    1.21
   4  -9  -6    7.65    0.80
   4  -9   7    7.81    1.37
   5  -9   7    7.30    1.38
  -4  -5   7    7.35    1.30
  -5  -4   7    7.28    1.30
   9  -5   7    7.13    1.29
   9  -4   7    6.95    1.33
  -9   4   7    7.83    1.77
  -9   5   7    6.63    1.81
   4   5   7    5.42    1.45
   5   4   7    7.30    1.42
  -4   9   7    8.34    1.44
  -5   9   7    7.51    1.41
   4   5  -7    7.40    1.36
   5   4  -7    8.13    1.39
   9  -5  -7    9.68    1.39
   9  -4  -7    9.75    1.43
  -4   9  -7   10.26    1.43
  -5   9  -7    9.25    1.41
   4   5  -7    9.02    1.27
   5   4  -7    8.50    1.26
  -9   5  -7    6.86    1.27
  -9   4  -7    6.87    1.27
   9  -4  -7    7.98    1.30
   9  -5  -7    8.51    1.26
  -5  -4  -7    7.03    1.32
  -4  -5  -7    8.56    1.34
   5  -9  -7    8.39    1.40
   4  -9  -7    8.74    1.46
   4  -9   8   -0.23    1.09
   5  -9   8   -0.18    1.08
  -4  -5   8   -0.74    1.06
  -5  -4   8    0.25    1.05
   9  -5   8    0.94    1.06
   9  -4   8   -0.17    1.04
  -9   4   8    1.84    1.04
  -9   5   8   -0.68    1.08
   5   4   8    0.35    1.11
   4   5   8   -1.16    1.16
  -5   9   8    1.00    1.16
  -4   9   8    0.02    1.18
   5   4  -8   -0.46    1.11
   4   5  -8   -0.79    1.06
   9  -4  -8   -0.92    1.17
   9  -5  -8   -0.96    1.16
  -5   9  -8    0.66    1.12
  -4   9  -8   -1.53    1.12
   4   5  -8    0.60    1.01
   5   4  -8    1.44    1.01
  -9   5  -8   -0.51    1.04
  -9   4  -8    1.42    0.99
   9  -4  -8   -0.65    1.01
   9  -5  -8    0.29    1.02
  -5  -4  -8    1.18    1.02
  -4  -5  -8    1.14    1.07
   4  -9  -8   -0.76    1.15
   5  -9  -8   -0.11    1.12
   4  -9   9    1.63    1.33
   5  -9   9    0.12    1.35
  -4  -5   9    2.51    1.27
  -5  -4   9    2.36    1.26
   9  -5   9    0.70    1.31
   9  -4   9    2.63    1.31
  -9   4   9    2.76    1.32
  -9   5   9    1.78    1.35
   5   4   9    0.86    1.32
   4   5   9    2.10    1.35
  -4   9   9    1.64    1.37
  -5   9   9    1.10    1.39
   5   4  -9    1.00    0.81
   4   5  -9   -0.92    1.25
   9  -5  -9    1.12    1.41
   9  -4  -9    2.71    1.41
  -4   9  -9    0.13    1.35
  -5   9  -9    0.94    1.34
   4   5  -9    0.13    1.24
   5   4  -9    1.52    1.23
  -9   5  -9    1.73    1.26
  -9   4  -9    3.72    1.23
   9  -4  -9    0.40    1.23
   9  -5  -9    1.50    1.22
  -5  -4  -9    1.37    1.28
  -4  -5  -9    1.83    1.27
   4  -9  -9    3.30    1.35
   5  -9  -9    1.63    1.34
   4  -9  10    1.64    1.50
   5  -9  10    2.29    1.46
  -4  -5  10   -0.24    1.42
  -5  -4  10   -1.05    1.37
   9  -4  10    3.79    1.50
   9  -5  10    2.25    1.45
  -9   4  10    2.26    1.53
  -9   5  10    1.15    1.55
   4   5  10    0.06    1.50
   5   4  10    0.69    0.93
  -4   9  10    1.48    1.54
  -5   9  10    1.45    1.55
   4   5 -10    2.52    1.38
   5   4 -10    0.54    1.43
   9  -5 -10    0.95    1.62
   9  -4 -10    0.78    1.60
  -5   9 -10    1.84    1.43
  -4   9 -10   -1.41    1.43
   5   4 -10    1.35    1.35
   4   5 -10    1.65    1.36
  -9   4 -10    3.49    1.43
  -9   5 -10    2.29    1.45
   9  -4 -10    3.15    1.41
   9  -5 -10   -0.57    1.42
  -5  -4 -10    0.89    1.39
  -4  -5 -10    2.31    1.39
   4  -9 -10    1.59    1.47
   5  -9 -10    2.34    1.46
   4  -9  11    2.23    1.60
   5  -9  11    0.14    1.59
  -4  -5  11   -0.45    1.54
  -5  -4  11    1.02    1.52
   9  -5  11    2.28    1.59
   9  -4  11   -0.09    1.65
  -9   4  11    2.49    1.63
  -9   5  11    2.06    1.72
   4   5  11    1.23    1.64
   5   4  11    1.75    1.64
  -5   9  11    1.79    1.75
  -4   9  11    1.81    1.70
   4   5 -11    2.26    1.50
   5   4 -11   -0.23    1.60
   9  -4 -11    1.83    1.82
   9  -5 -11    0.46    1.82
  -5   9 -11    1.66    1.54
  -4   9 -11    3.38    1.58
   4   5 -11    0.25    1.48
   5   4 -11    2.35    1.49
  -9   5 -11    2.76    1.58
  -9   4 -11    3.56    1.54
   9  -4 -11    2.22    1.49
   9  -5 -11    2.29    1.46
  -4  -5 -11   -0.25    1.54
  -5  -4 -11    2.66    1.51
   5  -9 -11    0.20    0.97
   4  -9 -11    1.66    1.58
   5  -9  12   -0.37    1.70
   4  -9  12    0.16    1.71
  -4  -5  12    1.81    1.63
  -5  -4  12    1.47    1.62
   9  -4  12    0.74    1.75
   9  -5  12    1.22    1.70
  -9   4  12    0.47    1.76
  -9   5  12    1.73    1.79
   4   5  12    0.17    1.78
   5   4  12    1.28    1.09
  -5   9  12    1.75    1.81
  -4   9  12    1.18    1.86
   4   5 -12   -0.18    1.65
   5   4 -12   -0.30    1.69
   9  -5 -12    1.67    1.22
   9  -4 -12    2.25    1.90
  -4   9 -12   -1.22    1.63
  -5   9 -12    0.42    1.65
   4   5 -12    1.28    1.56
   5   4 -12   -2.07    1.60
  -9   5 -12    2.50    1.67
  -9   4 -12    3.38    1.65
   9  -4 -12    1.52    1.62
   9  -5 -12    0.02    1.57
  -5  -4 -12    0.60    1.61
  -4  -5 -12   -2.49    1.63
   5  -9 -12    1.39    1.68
   4  -9 -12    1.05    1.72
   4  -9  13    1.11    1.78
   5  -9  13    1.20    1.76
  -4  -5  13    1.73    1.75
  -5  -4  13   -1.89    1.73
   9  -5  13   -0.40    1.80
   9  -4  13    1.51    1.84
  -9   4  13    0.38    1.86
  -9   5  13   -1.38    1.16
   4   5  13   -0.01    1.82
   5   4  13    1.79    1.84
  -5   9  13    0.36    1.99
  -4   9  13    2.46    1.94
   5   4 -13    0.74    1.86
   4   5 -13    1.73    1.79
   9  -5 -13   -2.33    2.20
   9  -4 -13    0.14    2.12
  -4   9 -13    0.23    1.75
  -5   9 -13    0.14    1.74
   5   4 -13   -1.07    1.67
   4   5 -13    0.57    1.68
  -9   5 -13    2.67    1.74
  -9   4 -13   -1.78    1.70
   9  -4 -13    0.00    1.64
   9  -5 -13    1.87    1.66
  -5  -4 -13   -1.00    1.67
  -4  -5 -13    0.88    1.67
   4  -9 -13    1.57    1.79
   5  -9 -13   -1.44    1.77
  -5  -5   0    0.46    0.50
  -5  10   0    0.26    0.17
 -10   5   0    1.68    0.74
   5 -10   0    0.90    0.71
  -5  -5   0    0.25    0.42
  10  -5   0    0.57    0.23
  10  -5   0    0.62    0.29
  -5  -5   1   39.83    1.36
 -10   5   1   40.66    1.62
   5 -10   1   38.07    1.61
  -5  -5   1   38.22    1.16
  -5  -5  -1   39.60    1.52
   5   5  -1   37.31    1.41
 -10   5  -1   40.70    1.72
  10  -5  -1   37.88    1.13
  -5  10  -1   41.23    1.68
   5 -10  -1   38.33    1.13
  -5  -5  -1   37.04    1.09
  10  -5  -1   37.70    0.79
  -5  -5  -1   39.03    1.17
  -5  -5   2   11.10    0.87
 -10   5   2   12.19    1.06
   5 -10   2   12.10    1.03
  -5  -5   2   11.74    0.74
  10  -5   2   11.90    0.69
   5   5  -2   12.60    0.94
  10  -5  -2   11.50    1.05
  -5  -5  -2   12.18    0.75
 -10   5  -2   12.83    1.15
   5 -10  -2   12.37    1.05
  -5  10  -2   12.00    0.72
   5   5  -2   12.07    0.77
 -10   5  -2   11.67    0.63
  10  -5  -2   13.97    0.68
  -5  -5  -2   12.89    0.75
 -10   5   3    8.26    1.03
   5 -10   3    8.83    0.99
  -5  -5   3    8.10    0.74
  10  -5   3    8.58    0.81
   5   5  -3    9.40    0.96
  10  -5  -3    9.41    0.99
  -5  10  -3    8.49    1.04
   5   5  -3    8.48    0.76
 -10   5  -3    8.38    0.71
  10  -5  -3    8.91    0.61
  -5  -5  -3    8.50    0.76
   5 -10  -3   10.70    1.10
 -10   5   4    5.76    0.95
   5 -10   4    4.77    0.93
  -5  -5   4    4.76    0.75
  10  -5   4    4.63    0.69
 -10   5   4    2.77    0.84
   5 -10  -4    4.56    0.58
   5   5  -4    4.69    0.94
  10  -5  -4    4.07    0.94
  -5  10  -4    6.02    0.98
   5   5  -4    4.20    0.76
 -10   5  -4    3.76    0.61
  10  -5  -4    4.82    0.67
  -5  -5  -4    5.22    1.04
   5 -10  -4    4.91    0.63
   5 -10   5   29.71    1.74
  -5  -5   5   27.72    1.55
  10  -5   5   26.84    1.55
 -10   5   5   26.54    1.56
   5 -10  -5   27.96    1.57
   5   5  -5   28.53    1.86
  10  -5  -5   31.59    1.69
  -5  10  -5   30.72    1.77
   5   5  -5   28.49    1.58
 -10   5  -5   26.10    1.76
  10  -5  -5   30.50    1.56
  -5  -5  -5   28.88    1.60
   5 -10  -5   31.53    1.84
   5 -10   6   11.99    0.93
  -5  -5   6   10.35    1.25
  10  -5   6   10.23    1.65
 -10   5   6   11.57    1.26
   5   5   6   11.56    1.43
   5 -10  -6   12.70    1.11
   5   5  -6   12.32    1.49
  10  -5  -6   13.09    1.38
  -5  10  -6   13.81    1.46
   5   5  -6   12.84    1.30
 -10   5  -6   11.03    1.23
  10  -5  -6   12.11    1.25
  -5  -5  -6   11.70    1.33
   5 -10  -6   13.10    1.44
   5 -10   7   13.52    1.58
  -5  -5   7   12.53    1.51
  10  -5   7   14.13    1.56
 -10   5   7   15.58    1.56
   5   5   7   13.57    1.65
   5   5  -7   13.08    1.66
  10  -5  -7   13.19    1.62
  -5  10  -7   14.38    1.05
   5   5  -7   14.04    1.54
 -10   5  -7   14.70    1.46
  10  -5  -7   12.21    1.53
  -5  -5  -7   13.40    1.53
   5 -10  -7   14.21    1.68
   5 -10   8    2.10    1.22
  -5  -5   8    0.56    1.13
  10  -5   8    0.59    1.18
 -10   5   8    2.91    1.59
   5   5   8    1.15    1.29
  -5  10   8    1.70    1.27
   5   5  -8    1.16    1.20
  10  -5  -8    1.74    1.26
  -5  10  -8    1.77    1.23
   5   5  -8    1.10    1.11
 -10   5  -8    0.88    1.11
  10  -5  -8    2.00    1.09
  -5  -5  -8    0.40    1.15
   5 -10  -8    0.80    0.77
   5 -10   9    4.61    1.48
  -5  -5   9    3.86    1.49
  10  -5   9    4.93    1.49
 -10   5   9    4.27    1.54
   5   5   9    4.54    1.62
  -5  10   9    6.30    1.56
   5   5  -9    4.94    1.51
  10  -5  -9    6.82    1.64
  -5  10  -9    4.28    1.58
   5   5  -9    3.22    1.43
 -10   5  -9    4.15    1.44
  10  -5  -9    5.20    1.42
  -5  -5  -9    3.50    1.41
   5 -10  -9    5.57    1.53
   5 -10  10    4.96    1.05
  -5  -5  10    2.64    1.58
  10  -5  10    3.65    1.69
 -10   5  10    3.33    1.74
   5   5  10    4.54    1.78
  -5  10  10    3.05    1.76
   5   5 -10    3.42    1.57
  10  -5 -10    4.62    1.15
  -5  10 -10    5.16    1.05
   5   5 -10    5.59    1.56
 -10   5 -10    5.20    1.56
  10  -5 -10    4.80    1.56
  -5  -5 -10    3.29    0.99
   5 -10 -10    2.78    1.68
   5 -10  11    3.71    1.78
  -5  -5  11    3.91    1.68
  10  -5  11    4.90    1.83
 -10   5  11    4.72    1.88
   5   5  11    4.03    1.94
  -5  10  11    4.06    1.91
   5   5 -11    3.70    1.72
  10  -5 -11    4.47    2.06
  -5  10 -11    4.84    1.82
   5   5 -11    4.27    1.70
 -10   5 -11    5.62    1.73
  10  -5 -11    2.90    1.70
  -5  -5 -11    4.63    1.68
   5 -10 -11    3.42    1.75
   5 -10  12    0.25    1.86
  -5  -5  12    1.69    1.75
  10  -5  12    1.54    1.87
 -10   5  12    0.84    1.21
   5   5  12    4.76    2.02
  -5  10  12    1.55    1.22
   5   5 -12    3.75    1.82
  10  -5 -12    1.30    2.14
  -5  10 -12    3.46    1.82
   5   5 -12    2.51    1.74
 -10   5 -12    3.36    1.79
  10  -5 -12    2.72    1.74
  -5  -5 -12    0.41    1.74
   5 -10 -12    0.00    1.76
  -6   0   0   87.72    2.49
  -6   6   0   88.06    2.33
   0   6   0   84.57    1.58
   6   0   0   83.97    1.90
   0  -6   0   81.08    1.78
   6  -6   0   87.91    2.07
  -6   0   0   84.83    1.33
  -6   0   0   88.13    1.40
  -6   0   1    0.90    0.38
  -6   6   1    0.69    0.40
   0  -6   1    0.70    0.57
   6  -6   1    0.56    0.44
  -6   0   1    0.33    0.22
   0   6  -1    0.22    0.38
   0  -6  -1    0.46    0.29
   6   0  -1    0.87    0.65
  -6   0  -1    0.48    0.37
   6  -6  -1    0.67    0.40
   6  -6  -1   -0.07    0.43
   0  -6  -1    0.37    0.55
  -6   6  -1    0.38    0.47
   0   6  -1    0.63    0.61
   6   0  -1    0.38    0.25
  -6   0  -1    0.51    0.29
  -6   6   2   43.81    1.25
  -6   0   2   45.48    1.67
   0  -6   2   42.51    1.51
   6  -6   2   42.43    1.32
  -6   0   2   44.10    1.19
   6   0   2   44.36    1.19
   0   6  -2   45.35    1.24
   6   0  -2   44.63    1.66
   6  -6  -2   43.26    1.24
   0   6  -2   45.46    1.60
  -6   6  -2   44.04    1.38
   6   0  -2   44.44    1.10
  -6   0  -2   47.21    1.19
   6  -6  -2   43.80    1.38
   0  -6  -2   44.56    1.63
  -6   0   3    0.73    0.70
   0  -6   3    0.36    0.37
   6  -6   3    0.21    0.54
  -6   0   3   -0.11    0.59
   6   0   3   -0.26    0.56
   6  -6  -3    0.34    0.49
   6   0  -3   -0.04    0.68
   0   6  -3   -0.42    0.66
  -6   6  -3    0.06    0.54
   6   0  -3    0.33    0.51
  -6   0  -3    0.24    0.61
   6  -6  -3    1.20    0.55
   0  -6  -3    0.70    0.69
   0  -6   4   27.72    1.30
   6  -6   4   27.39    1.20
  -6   0   4   26.18    1.12
   6   0   4   24.61    1.10
  -6   6   4   28.35    1.28
   0   6   4   27.12    0.96
   6   0  -4   26.85    1.33
   6  -6  -4   27.86    1.14
   0   6  -4   28.24    1.30
  -6   6  -4   28.75    1.25
   6   0  -4   27.77    1.32
  -6   0  -4   29.65    1.17
   6  -6  -4   28.14    1.22
   0  -6  -4   28.49    1.36
   0  -6   5    4.38    0.82
   6  -6   5    3.60    0.77
  -6   0   5    4.57    0.73
   6   0   5    4.82    0.74
  -6   6   5    4.25    0.86
   0   6   5    4.45    0.56
   6  -6  -5    3.68    0.75
   6   0  -5    3.67    0.86
   0   6  -5    3.67    0.86
  -6   6  -5    2.73    0.78
   6   0  -5    4.02    0.70
  -6   0  -5    4.47    1.02
   6  -6  -5    4.49    0.81
   0  -6  -5    3.72    0.88
   0  -6   6   33.95    1.77
   6  -6   6   30.71    1.63
  -6   0   6   30.96    1.70
   6   0   6   32.29    1.75
  -6   6   6   32.94    1.72
   0   6   6   33.67    1.85
   6  -6  -6   33.23    1.65
   6   0  -6   32.43    1.73
   0   6  -6   35.65    1.21
  -6   6  -6   36.40    1.68
   6   0  -6   32.68    1.58
  -6   0  -6   32.05    1.67
   6  -6  -6   33.15    1.22
   0  -6  -6   35.76    1.78
   0  -6   7    5.98    1.12
   6  -6   7    5.86    1.11
  -6   0   7    6.48    1.12
   6   0   7    5.44    1.12
  -6   6   7    4.88    1.15
   0   6   7    4.95    1.19
   6  -6  -7    6.55    1.13
   6   0  -7    6.22    1.17
   0   6  -7    6.00    1.12
  -6   6  -7    5.73    1.12
   6   0  -7    6.09    1.01
  -6   0  -7    5.95    1.11
   6  -6  -7    5.60    0.70
   0  -6  -7    5.91    1.18
   0  -6   8    0.22    1.06
   6  -6   8    1.34    1.03
  -6   0   8    1.22    1.04
   6   0   8    1.25    1.06
  -6   6   8    1.01    1.09
   0   6   8    1.62    1.09
   6  -6  -8    0.56    1.06
   6   0  -8   -0.55    1.11
   0   6  -8   -0.30    1.03
  -6   6  -8   -0.52    1.04
   6   0  -8    0.78    0.97
  -6   0  -8    0.85    1.03
   6  -6  -8    0.15    1.02
   0  -6  -8    1.72    1.10
   0  -6   9    2.02    1.33
   6  -6   9    1.38    1.29
  -6   0   9    2.62    1.28
   6   0   9    0.93    1.29
  -6   6   9    1.83    1.35
   0   6   9    2.42    1.28
   6   0  -9    2.47    1.38
   0   6  -9    4.20    1.26
  -6   6  -9    3.67    0.80
   6   0  -9    4.11    1.18
  -6   0  -9    3.93    1.23
   6  -6  -9    1.29    1.24
   0  -6  -9    2.77    1.33
   0  -6  10    9.84    1.84
   6  -6  10   10.21    1.77
  -6   0  10   12.40    1.82
   6   0  10   12.36    1.81
  -6   6  10   12.80    1.90
   0   6  10    9.64    1.15
   6   0 -10    9.72    1.88
   0   6 -10   10.54    1.72
  -6   6 -10   13.35    1.76
   6   0 -10   12.13    1.67
  -6   0 -10   12.22    1.76
   6  -6 -10   10.29    1.76
   0  -6 -10   12.21    1.77
   0  -6  11    3.06    1.67
   6  -6  11    5.15    1.62
  -6   0  11    5.46    1.02
   6   0  11    6.12    1.71
  -6   6  11    3.46    1.74
   0   6  11    3.63    1.05
   6   0 -11    4.82    1.81
   0   6 -11    4.44    1.56
  -6   6 -11    2.90    1.63
   6   0 -11    5.47    1.53
  -6   0 -11    2.46    1.58
   6  -6 -11    4.28    1.01
   0  -6 -11    5.16    1.04
   0  -6  12    4.53    1.13
   6  -6  12    4.82    1.82
  -6   0  12    4.13    1.85
   6   0  12    6.66    1.85
  -6   6  12    3.13    1.97
   0   6  12    4.08    1.16
   6   0 -12    4.09    2.00
   0   6 -12    4.32    1.72
  -6   6 -12    5.45    1.11
   6   0 -12    4.95    1.07
  -6   0 -12    5.57    1.76
   6  -6 -12    3.06    1.73
   0  -6 -12    2.71    1.80
   0  -6  13    1.74    1.75
   6  -6  13    2.47    1.74
  -6   0  13    2.29    1.71
   6   0  13   -0.17    1.74
  -6   6  13   -1.10    1.80
   0   6  13    0.01    1.77
   6  -6 -13    2.78    1.95
   6   0 -13   -0.44    1.89
   0   6 -13    1.93    1.62
  -6   6 -13    0.52    1.72
   6   0 -13   -2.51    1.59
  -6   0 -13    1.63    1.61
   6  -6 -13   -0.63    1.63
   0  -6 -13    1.58    1.72
  -1  -6   0   22.31    0.72
  -6  -1   0   20.21    0.72
  -7   1   0   23.42    1.23
  -7   6   0   21.48    0.93
  -6   7   0   20.55    0.71
   6  -7   0   22.49    0.95
   1  -7   0   19.03    0.71
  -1  -6   0   21.42    1.00
   7  -6   0   20.52    0.76
  -6  -1   0   22.71    0.64
  -6  -1   1   10.15    0.88
  -7   1   1   10.67    0.95
  -6   7   1   10.11    0.53
  -7   6   1   11.15    0.72
   1  -7   1   11.26    0.88
  -1  -6   1   10.57    0.80
   6  -7   1   11.03    0.75
   7  -6   1    9.92    0.60
  -6  -1   1    9.87    0.44
  -1   7  -1    9.37    0.51
   1   6  -1    9.38    0.72
  -1  -6  -1   10.28    0.51
   7  -1  -1   11.91    1.00
  -6  -1  -1    9.89    0.90
   6   1  -1   11.16    0.97
  -7   1  -1   11.12    1.00
   7  -6  -1   10.40    0.69
  -1  -6  -1   10.25    0.80
   7  -6  -1    9.95    0.60
   1  -7  -1   10.96    0.88
   6  -7  -1   11.25    0.74
  -6   7  -1   12.44    0.80
   6   1  -1    9.24    0.45
  -7   6  -1   10.68    0.63
  -1   7  -1   11.59    0.96
   1   6  -1   11.64    0.86
  -6  -1  -1   10.03    0.50
  -6   7   2    5.17    0.66
  -7   6   2    4.90    0.64
  -7   1   2    4.40    0.87
  -6  -1   2    5.41    0.83
   1  -7   2    5.72    0.80
  -1  -6   2    4.82    0.46
   6  -7   2    4.76    0.68
   7  -6   2    4.73    0.56
  -6  -1   2    4.28    0.53
  -7   1   2    3.53    0.46
   7  -1   2    3.75    0.45
   1   6  -2    4.29    0.57
   6   1  -2    5.36    0.83
   7  -1  -2    4.58    0.86
   7  -6  -2    5.01    0.66
   6  -7  -2    5.30    0.64
   1   6  -2    5.51    0.77
  -6   7  -2    4.92    0.72
  -1   7  -2    5.54    0.82
  -7   6  -2    4.79    0.59
   6   1  -2    3.95    0.51
   7  -1  -2    3.71    0.40
  -7   1  -2    3.93    0.45
  -6  -1  -2    3.74    0.55
   7  -6  -2    5.42    0.56
  -1  -6  -2    5.74    0.79
   6  -7  -2    5.51    0.69
   1  -7  -2    4.94    0.84
  -7   6   3   13.05    0.81
  -7   1   3   12.80    1.11
  -6  -1   3   12.77    1.02
  -1  -6   3   12.81    0.91
   1  -7   3   13.80    0.99
   6  -7   3   13.39    0.87
   7  -6   3   12.39    0.79
  -6  -1   3   11.72    0.87
  -7   1   3   11.42    0.80
   7  -1   3   11.15    0.83
   6   1   3   11.23    0.71
   1   6  -3   11.34    0.85
   6  -7  -3   12.86    0.90
   6   1  -3   13.36    0.65
   7  -1  -3   12.36    1.05
   7  -6  -3   13.78    0.85
  -1   7  -3   13.29    1.01
   1   6  -3   13.88    0.93
  -6   7  -3   13.13    0.90
  -7   6  -3   13.29    0.79
   6   1  -3   12.77    0.63
   7  -1  -3   12.40    0.58
  -7   1  -3   12.32    0.63
  -6  -1  -3   13.79    0.71
   7  -6  -3   12.07    0.78
  -1  -6  -3   14.02    0.97
   6  -7  -3   11.92    0.87
   1  -7  -3   13.81    1.08
   1  -7   4    3.69    0.80
  -1  -6   4    3.59    0.75
   6  -7   4    3.60    0.74
   7  -6   4    3.21    0.66
  -6  -1   4    2.52    0.82
  -7   1   4    3.59    0.81
   7  -1   4    3.94    0.83
   6   1   4    3.49    0.62
  -7   6   4    3.96    0.96
   6  -7  -4    3.42    0.60
   7  -6  -4    3.51    0.68
   6   1  -4    2.71    0.80
   7  -1  -4    3.47    0.81
  -1   7  -4    3.78    0.81
  -6   7  -4    3.55    0.74
   1   6  -4    2.63    0.77
  -7   6  -4    4.12    0.69
   6   1  -4    3.76    0.76
   7  -1  -4    3.47    0.73
  -7   1  -4    3.55    0.60
  -6  -1  -4    3.02    0.62
   7  -6  -4    3.59    0.67
   6  -7  -4    3.25    0.75
  -1  -6  -4    4.00    0.81
   1  -7  -4    4.10    0.52
  -1  -6   5   10.54    1.04
   1  -7   5   10.97    1.09
   6  -7   5    9.60    0.68
   7  -6   5   10.10    0.97
  -6  -1   5    9.75    1.28
  -7   1   5   12.98    1.29
   7  -1   5   11.09    0.97
   6   1   5    9.96    0.97
  -7   6   5    9.92    1.10
   1   6   5   11.55    1.13
  -6   7   5   10.98    0.74
  -1   7   5   11.02    1.14
   6  -7  -5   11.23    0.94
   7  -6  -5   10.91    1.00
   7  -1  -5   11.07    1.11
   6   1  -5   10.16    1.09
  -6   7  -5   11.22    1.07
   1   6  -5   11.41    1.06
  -1   7  -5   12.39    1.14
  -7   6  -5   10.46    0.98
   6   1  -5   11.52    0.91
   7  -1  -5   12.13    0.88
  -7   1  -5   11.26    0.94
  -6  -1  -5   10.74    0.98
   7  -6  -5   11.01    1.01
   6  -7  -5   12.34    1.08
  -1  -6  -5   11.24    1.11
   1  -7  -5   12.63    1.15
   1  -7   6    2.07    0.91
   6  -7   6    1.25    0.85
  -1  -6   6    1.73    0.88
   7  -6   6    1.41    0.84
  -6  -1   6    1.36    0.82
   7  -1   6    3.75    0.86
   6   1   6    0.39    0.84
  -7   6   6    1.61    0.89
  -6   7   6    0.57    0.96
   1   6   6    2.27    0.93
  -1   7   6    2.00    0.59
   6  -7  -6    0.13    1.13
   7  -6  -6    1.18    0.87
   7  -1  -6    1.52    0.92
   6   1  -6    2.62    0.57
  -1   7  -6    0.92    0.92
   1   6  -6    1.46    0.87
  -6   7  -6    2.57    0.88
  -7   6  -6    0.81    0.86
   6   1  -6    2.35    0.78
   7  -1  -6    2.23    0.77
  -7   1  -6    0.84    0.85
  -6  -1  -6    1.54    0.88
   7  -6  -6    0.70    0.87
   6  -7  -6    2.12    0.55
  -1  -6  -6    2.16    0.92
   1  -7  -6    2.07    0.98
   1  -7   7    1.28    1.05
   6  -7   7    2.56    1.02
  -1  -6   7    1.41    1.04
   7  -6   7    1.62    1.01
  -6  -1   7    1.98    1.00
  -7   1   7    4.30    1.06
   6   1   7    2.27    1.02
  -7   6   7   -0.50    1.08
   1   6   7    1.77    0.70
  -1   7   7    1.30    1.16
  -6   7   7    2.29    1.10
   6  -7  -7    2.31    1.01
   6   1  -7    1.87    1.12
   7  -6  -7    1.32    1.09
   7  -1  -7    2.70    0.68
  -1   7  -7    2.13    1.05
   1   6  -7    3.07    0.98
  -6   7  -7    0.74    1.02
  -7   6  -7    1.48    1.03
   6   1  -7    1.70    0.95
   7  -1  -7    3.76    0.97
  -1  -6  -7    3.43    1.07
   6  -7  -7    2.11    1.04
   1  -7  -7    3.16    0.71
   1  -7   8    3.34    1.12
  -1  -6   8    0.32    1.13
   6  -7   8    1.17    1.10
   7  -6   8   -0.23    1.12
  -6  -1   8    2.66    1.10
  -7   1   8    1.53    1.10
   7  -1   8    2.76    1.12
   6   1   8    1.65    1.08
  -7   6   8    0.08    1.18
  -6   7   8    0.43    1.17
   1   6   8    1.34    1.15
  -1   7   8    1.28    0.74
   6  -7  -8    2.55    1.09
   7  -6  -8    1.83    0.73
   6   1  -8    2.43    1.18
   7  -1  -8   -0.27    1.18
  -1   7  -8   -0.22    1.10
   1   6  -8    0.65    1.09
  -6   7  -8    1.13    0.68
  -7   6  -8    2.59    1.11
   6   1  -8    1.97    1.01
   7  -1  -8    0.18    1.00
  -7   1  -8    2.70    1.06
  -6  -1  -8    1.29    1.07
   7  -6  -8    0.96    1.05
  -1  -6  -8    2.79    1.12
   6  -7  -8    0.92    0.69
   1  -7  -8    0.79    0.72
   1  -7   9    1.48    1.23
   6  -7   9   -0.67    1.22
  -1  -6   9    0.62    1.19
   7  -6   9   -1.08    1.22
  -6  -1   9    0.62    1.20
   7  -1   9    1.29    0.75
   6   1   9    2.30    1.22
  -7   6   9   -0.53    1.29
   1   6   9    2.47    1.20
  -6   7   9   -0.95    1.26
  -1   7   9   -0.96    1.27
   7  -6  -9    0.82    1.29
   7  -1  -9   -0.37    1.30
   6   1  -9   -0.20    1.23
  -6   7  -9    0.14    1.19
  -1   7  -9   -0.28    1.20
   1   6  -9    1.01    1.15
  -7   6  -9    0.07    0.73
   6   1  -9    0.56    1.13
  -7   1  -9    3.40    1.15
  -6  -1  -9    1.06    1.16
   7  -6  -9    0.52    0.73
   6  -7  -9   -0.37    1.18
  -1  -6  -9    0.70    1.24
   1  -7  -9    0.06    0.78
  -1  -6  10    0.69    1.27
   1  -7  10    0.14    0.83
   6  -7  10    0.47    0.81
   7  -6  10    1.26    1.28
  -6  -1  10    2.46    1.30
   6   1  10   -1.02    1.36
  -7   6  10   -0.82    1.40
   1   6  10    0.08    1.30
  -6   7  10    0.46    0.84
  -1   7  10   -0.45    1.37
   6   1 -10   -0.31    1.39
   7  -1 -10   -1.31    1.43
   7  -6 -10   -0.57    1.44
  -1   7 -10    0.09    1.25
  -6   7 -10    0.28    1.29
  -7   6 -10   -2.64    1.32
   6   1 -10    0.33    1.24
   7  -1 -10    0.76    0.74
  -6  -1 -10   -0.97    1.27
   7  -6 -10   -1.96    1.28
   6  -7 -10   -1.02    1.28
  -1  -6 -10   -0.31    1.27
   1  -7 -10   -1.01    1.29
  -1  -6  11   -2.13    1.51
   1  -7  11    0.53    1.53
   6  -7  11   -0.82    1.46
   7  -6  11   -0.16    1.49
  -6  -1  11    0.66    1.50
  -7   1  11    4.28    1.54
   7  -1  11    3.81    1.59
   6   1  11    3.47    1.54
  -7   6  11    0.01    1.59
   1   6  11   -0.10    1.53
  -6   7  11    2.14    0.99
  -1   7  11    1.21    1.56
   7  -1 -11    2.63    1.66
   7  -6 -11   -0.40    1.70
   6   1 -11    1.21    1.62
  -6   7 -11   -1.47    1.47
  -1   7 -11    0.46    1.45
   1   6 -11    0.94    0.88
  -7   6 -11    0.57    1.52
   6   1 -11    1.33    1.41
   7  -1 -11    3.02    1.43
  -7   1 -11    4.21    1.50
  -6  -1 -11    0.30    0.87
   7  -6 -11   -0.87    1.47
  -1  -6 -11    0.47    0.93
   6  -7 -11    0.86    1.49
   1  -7 -11    2.30    1.49
   1  -7  12    0.71    1.60
  -1  -6  12    0.44    1.59
   6  -7  12    0.05    1.59
   7  -6  12   -1.50    1.64
  -6  -1  12    0.70    1.65
  -7   1  12    4.17    1.69
   7  -1  12    3.36    1.67
   6   1  12    2.19    1.03
  -7   6  12    0.03    1.77
   1   6  12   -0.26    1.64
  -6   7  12    0.90    1.07
  -1   7  12    2.08    1.70
   7  -6 -12    0.85    1.90
   6   1 -12   -0.34    1.78
   7  -1 -12    3.06    1.83
   1   6 -12    1.69    0.94
  -6   7 -12   -0.20    1.58
  -1   7 -12   -1.30    1.57
  -7   6 -12    0.16    1.00
   6   1 -12    0.13    1.54
   7  -1 -12    3.64    1.54
  -7   1 -12    2.41    1.56
  -6  -1 -12    0.32    1.59
   7  -6 -12   -2.58    1.56
  -1  -6 -12    0.95    1.62
   6  -7 -12    0.06    0.98
   1  -7 -12    0.93    1.64
   1  -7  13    0.94    1.70
   6  -7  13    0.07    1.06
  -1  -6  13   -0.09    1.74
   7  -6  13    2.47    1.70
  -6  -1  13   -0.92    1.71
  -7   1  13    1.40    1.77
   7  -1  13    3.13    1.74
   6   1  13    1.29    1.71
  -7   6  13    1.63    1.85
  -6   7  13    2.49    1.78
   1   6  13   -0.51    1.78
  -1   7  13    0.32    1.81
   6  -7 -13    1.80    1.93
   7  -1 -13    1.23    2.00
   6   1 -13    1.26    1.91
   7  -6 -13    0.99    2.05
   1   6 -13   -0.89    1.01
  -1   7 -13   -3.19    1.63
  -6   7 -13   -1.67    1.67
  -7   6 -13   -0.74    1.67
   6   1 -13    0.10    0.97
   7  -1 -13    0.08    1.62
  -7   1 -13    0.73    1.62
  -6  -1 -13    0.89    0.99
   7  -6 -13    0.25    1.60
   6  -7 -13   -0.54    1.62
  -1  -6 -13   -2.85    1.68
   1  -7 -13    0.61    1.03
  -2  -6   0   30.52    1.02
  -6  -2   0   31.10    1.30
  -8   2   0   32.11    1.48
  -8   6   0   30.24    1.23
  -6   8   0   27.40    0.96
   2  -8   0   32.20    1.38
  -2  -6   0   29.20    1.14
   6  -8   0   30.07    1.23
   8  -6   0   31.04    1.02
  -6  -2   0   28.39    0.82
  -6   8   1   98.35    2.32
  -6  -2   1   96.41    2.90
  -8   6   1   97.02    2.76
  -8   2   1   97.93    3.09
   2  -8   1   95.33    2.88
   6  -8   1   97.03    2.75
  -2  -6   1   94.46    2.63
   8  -6   1   94.41    2.21
  -6  -2   1   99.54    2.26
  -2  -6  -1   94.60    2.33
   2   6  -1   96.88    2.81
  -6  -2  -1   99.14    2.86
   6   2  -1   95.35    3.04
  -8   2  -1  102.27    3.24
   8  -2  -1   99.37    3.18
   8  -6  -1   92.86    2.61
  -8   6  -1   99.08    2.93
  -6  -2  -1   90.26    2.11
  -2  -6  -1   93.84    2.61
  -2   8  -1  100.13    3.12
   2   6  -1   98.56    2.82
  -8   6  -1   96.93    2.32
   6   2  -1   97.69    2.29
   6  -8  -1   94.10    2.67
   8  -6  -1   90.64    2.13
   2  -8  -1   98.64    2.98
  -6   8  -1  102.33    2.92
  -6  -2  -1  100.82    2.40
   8  -6  -1   96.22    2.53
  -6  -2   2    8.36    0.89
  -8   6   2    9.12    0.79
  -8   2   2    8.45    0.97
   2  -8   2    9.16    0.90
  -2  -6   2    7.68    0.79
   6  -8   2    7.75    0.51
   8  -6   2    7.67    0.58
  -6  -2   2    7.53    0.62
   8  -2   2    7.14    0.57
   2   6  -2    7.26    0.68
   6   2  -2    7.22    0.91
   8  -2  -2    8.14    0.97
   8  -6  -2    9.50    0.79
   6  -8  -2    7.66    0.59
  -2  -6  -2    7.64    0.47
  -6  -2  -2   10.04    0.86
   2   6  -2    7.79    0.83
  -2   8  -2    9.09    0.61
  -6   8  -2    8.77    0.86
  -8   6  -2    8.57    0.61
   6   2  -2    7.77    0.64
  -8   2  -2    6.95    0.52
   8  -2  -2    6.75    0.43
  -6  -2  -2    8.43    0.67
   8  -6  -2    7.45    0.58
  -2  -6  -2    7.56    0.51
   6  -8  -2    9.19    0.84
   2  -8  -2    8.25    0.58
  -6  -2   3   21.99    1.22
  -8   6   3   22.64    1.08
  -8   2   3   21.98    1.28
   2  -8   3   20.69    1.19
  -2  -6   3   19.76    1.06
   6  -8   3   20.12    0.73
   8  -6   3   19.62    0.90
  -6  -2   3   18.04    1.05
   8  -2   3   19.55    0.99
   6   2   3   18.29    0.86
   2   6  -3   20.74    1.12
   6   2  -3   20.43    1.22
   6  -8  -3   20.73    0.79
   8  -2  -3   21.11    1.27
   8  -6  -3   23.02    1.09
   2   6  -3   21.78    1.11
  -6   8  -3   22.50    1.14
  -8   6  -3   21.35    0.92
   6   2  -3   19.81    0.82
  -8   2  -3   20.29    0.73
   8  -2  -3   21.25    0.90
  -6  -2  -3   19.37    1.10
   8  -6  -3   20.37    1.16
  -2  -6  -3   20.52    0.77
   6  -8  -3   20.85    1.13
   2  -8  -3   23.91    1.35
  -8   2   4    4.44    0.56
   2  -8   4    5.25    0.88
  -2  -6   4    4.07    0.78
   6  -8   4    4.60    0.81
   8  -6   4    4.68    0.89
  -6  -2   4    3.86    0.66
   8  -2   4    5.40    0.85
  -8   2   4    4.26    0.80
   6   2   4    3.70    0.95
  -8   6   4    4.41    0.73
   2   6  -4    4.29    0.81
   6   2  -4    4.16    0.55
   6  -8  -4    3.87    0.58
   8  -6  -4    4.74    0.76
   8  -2  -4    3.88    0.55
  -6   8  -4    5.26    0.83
  -2   8  -4    4.73    0.91
   2   6  -4    4.28    0.81
  -8   6  -4    4.09    0.70
   6   2  -4    3.30    0.82
  -8   2  -4    3.88    0.58
   8  -2  -4    3.97    0.57
  -6  -2  -4    4.43    0.68
   8  -6  -4    4.52    0.69
  -2  -6  -4    4.57    0.83
   6  -8  -4    4.38    0.83
   2  -8  -4    4.68    0.94
   2  -8   5   29.06    1.63
  -2  -6   5   28.13    1.53
   6  -8   5   27.91    1.55
   8  -6   5   26.49    1.44
  -6  -2   5   25.32    1.44
   8  -2   5   25.67    1.48
  -8   2   5   24.63    1.44
   6   2   5   24.06    1.88
  -8   6   5   27.95    1.61
   2   6   5   26.94    1.63
  -6   8   5   28.26    1.20
   2   6  -5   25.30    1.59
   6  -8  -5   28.23    1.69
   6   2  -5   27.90    1.67
   8  -2  -5   29.03    1.15
   8  -6  -5   29.52    1.54
  -2   8  -5   32.04    1.66
   2   6  -5   30.97    1.56
  -6   8  -5   31.11    1.58
  -8   6  -5   27.94    1.46
   6   2  -5   27.49    1.40
  -8   2  -5   27.04    1.42
   8  -2  -5   27.08    1.40
  -6  -2  -5   27.05    1.50
   8  -6  -5   28.54    1.84
  -2  -6  -5   30.27    1.60
   6  -8  -5   30.57    1.57
   2  -8  -5   31.74    1.19
   2  -8   6    1.45    0.97
   6  -8   6    2.86    0.93
  -2  -6   6    2.79    0.92
   8  -6   6    1.95    0.88
  -6  -2   6    2.68    0.87
   8  -2   6    2.65    0.88
  -8   2   6    2.76    0.89
   6   2   6    2.61    0.90
  -8   6   6    1.57    0.94
   2   6   6    1.92    0.62
  -6   8   6    2.23    1.00
  -2   8   6    0.91    1.03
   6  -8  -6    2.14    0.86
   6   2  -6    2.06    1.00
   8  -6  -6    3.06    0.93
   8  -2  -6    1.84    1.00
  -2   8  -6    0.73    1.02
   2   6  -6    0.84    0.94
  -6   8  -6    1.39    0.97
  -8   6  -6    3.17    0.87
   6   2  -6    2.04    0.82
  -8   2  -6    4.30    0.83
   8  -2  -6    2.50    0.80
  -6  -2  -6    2.10    0.87
   8  -6  -6    3.02    0.87
  -2  -6  -6    1.25    0.97
   6  -8  -6    3.46    0.96
   2  -8  -6    2.62    1.01
   2  -8   7   17.14    1.73
  -2  -6   7   17.08    1.61
   6  -8   7   17.35    1.66
   8  -6   7   16.33    1.63
  -6  -2   7   16.51    1.63
   8  -2   7   19.66    1.72
  -8   2   7   20.20    1.71
   6   2   7   15.26    1.67
  -8   6   7   18.47    1.70
   2   6   7   17.67    1.78
  -2   8   7   16.67    1.77
  -6   8   7   17.49    1.75
   6  -8  -7   18.54    1.64
   8  -6  -7   18.05    1.71
   6   2  -7   17.16    1.70
   8  -2  -7   18.69    1.74
  -2   8  -7   18.36    1.68
   2   6  -7   19.88    1.58
  -6   8  -7   20.14    1.67
  -8   6  -7   16.90    1.69
   6   2  -7   19.17    1.56
  -8   2  -7   17.37    1.63
   8  -2  -7   19.03    1.56
  -6  -2  -7   17.52    1.65
   8  -6  -7   15.91    1.58
  -2  -6  -7   19.91    1.71
   2  -8  -7   19.57    1.79
   6  -8  -7   19.72    1.68
   2  -8   8    0.47    1.12
  -2  -6   8   -0.87    1.08
   6  -8   8   -1.70    1.10
   8  -6   8    0.50    0.65
  -6  -2   8    1.20    1.03
   8  -2   8    2.99    1.09
  -8   2   8   -0.03    1.09
   6   2   8    0.87    1.09
  -8   6   8   -0.47    1.12
   2   6   8   -0.28    0.70
  -6   8   8   -0.25    1.20
  -2   8   8   -0.34    1.13
   6  -8  -8    0.81    1.07
   6   2  -8    0.61    1.15
   8  -2  -8   -0.17    1.15
   8  -6  -8    1.01    1.15
   2   6  -8    1.61    1.02
  -6   8  -8   -0.03    1.09
  -2   8  -8    0.03    1.10
  -8   6  -8    2.35    1.06
   6   2  -8    0.66    1.00
  -8   2  -8    1.57    1.01
   8  -2  -8    1.05    1.02
  -6  -2  -8    0.99    1.06
   8  -6  -8    1.23    1.02
  -2  -6  -8   -0.36    1.11
   2  -8  -8    0.13    1.19
   6  -8  -8   -0.47    1.08
   6  -8   9    6.89    1.53
   2  -8   9    6.75    1.55
  -2  -6   9    6.37    1.53
   8  -6   9    5.22    1.51
  -6  -2   9    5.93    1.49
  -8   2   9    6.81    1.56
   8  -2   9    7.76    1.53
  -8   6   9    4.59    1.64
   6   2   9    3.90    1.59
   2   6   9    4.03    1.58
  -2   8   9    7.26    1.67
  -6   8   9    6.65    1.65
   6   2  -9    5.10    1.55
   8  -2  -9    6.93    1.05
   8  -6  -9    6.17    1.67
  -2   8  -9    7.03    1.53
  -6   8  -9    6.92    1.51
   2   6  -9    4.83    1.43
  -8   6  -9    7.11    1.00
   6   2  -9    6.05    1.42
  -8   2  -9   10.75    1.50
   8  -2  -9    6.70    1.49
  -6  -2  -9    6.53    1.46
   8  -6  -9    5.90    1.49
  -2  -6  -9    7.81    1.55
   6  -8  -9    5.93    1.53
   2  -8  -9    6.12    1.60
   2  -8  10    1.99    1.51
   6  -8  10    1.75    1.43
  -2  -6  10    0.67    1.46
   8  -6  10    0.20    1.45
  -6  -2  10    3.12    1.44
   8  -2  10    2.81    1.48
  -8   2  10    3.89    1.49
  -8   6  10    1.61    1.58
   6   2  10   -0.63    1.50
   2   6  10    2.50    1.55
  -2   8  10   -0.88    1.59
  -6   8  10    0.18    1.60
   8  -6 -10    1.23    1.65
   6   2 -10    1.81    0.94
   8  -2 -10    1.45    1.60
  -2   8 -10    0.71    1.45
   2   6 -10    1.91    1.40
  -6   8 -10   -0.03    1.46
  -8   6 -10    2.40    0.92
   6   2 -10    3.37    1.38
  -8   2 -10    4.88    1.43
   8  -2 -10    4.83    1.37
  -6  -2 -10    2.68    1.42
   8  -6 -10    0.28    1.40
  -2  -6 -10    1.63    1.40
   6  -8 -10    1.95    0.87
   2  -8 -10    3.97    1.52
   2  -8  11    0.65    1.59
   6  -8  11    1.50    1.55
  -2  -6  11    0.49    1.54
   8  -6  11    0.93    1.57
  -6  -2  11    0.61    1.51
   8  -2  11    2.66    1.62
  -8   2  11    1.48    1.60
  -8   6  11    1.11    1.67
   6   2  11    1.90    1.59
   2   6  11    2.99    1.61
  -2   8  11   -1.18    1.64
  -6   8  11    1.02    1.70
   6   2 -11    0.79    1.01
   8  -6 -11    1.15    1.82
   8  -2 -11    1.34    1.70
  -2   8 -11   -0.31    1.52
   2   6 -11    1.76    1.49
  -6   8 -11    3.50    1.53
  -8   6 -11    1.34    0.97
   6   2 -11    2.31    1.47
  -8   2 -11    3.11    1.49
   8  -2 -11    3.29    1.48
   8  -6 -11   -0.30    1.46
  -6  -2 -11    1.86    1.51
  -2  -6 -11    1.09    0.95
   6  -8 -11    1.08    1.51
   2  -8 -11    2.61    1.54
   2  -8  12   -0.81    1.67
   6  -8  12    0.67    1.61
  -2  -6  12    1.15    1.57
   8  -6  12    1.90    1.59
  -6  -2  12   -1.16    1.59
   8  -2  12    3.05    1.69
  -8   2  12    3.27    1.67
   6   2  12    1.05    1.71
  -8   6  12   -0.85    1.73
   2   6  12    1.53    1.66
  -6   8  12   -0.01    1.74
  -2   8  12   -0.72    1.11
   6  -8 -12    0.37    1.79
   8  -6 -12   -1.14    1.95
   6   2 -12    1.85    1.10
   8  -2 -12   -0.18    1.87
  -2   8 -12   -3.73    1.58
  -6   8 -12   -0.60    1.58
   2   6 -12    1.87    1.53
  -8   6 -12   -1.55    1.63
   6   2 -12    0.16    1.53
  -8   2 -12    2.41    1.55
   8  -2 -12    2.29    1.56
  -6  -2 -12    2.53    1.54
   8  -6 -12   -0.31    1.51
  -2  -6 -12    0.50    1.60
   2  -8 -12   -0.80    1.65
   6  -8 -12   -1.81    1.63
   6  -8  13   -0.59    1.74
   2  -8  13    2.60    1.79
  -2  -6  13    0.33    1.78
   8  -6  13    0.15    1.76
  -6  -2  13    0.67    1.77
   8  -2  13    0.60    1.82
  -8   2  13   -3.27    1.78
   6   2  13    3.23    1.82
  -8   6  13   -0.26    1.86
  -6   8  13   -0.11    1.95
   2   6  13    0.90    1.90
  -2   8  13    1.54    1.94
   6  -8 -13    0.24    1.98
   8  -6 -13    1.68    2.15
   6   2 -13   -0.83    1.20
   8  -2 -13   -0.94    2.08
  -2   8 -13    0.22    1.71
   2   6 -13    0.05    1.64
  -6   8 -13    2.27    1.74
  -8   6 -13    2.60    1.80
   6   2 -13   -1.68    1.68
  -8   2 -13    1.99    1.72
   8  -2 -13    0.12    1.69
   8  -6 -13   -0.22    1.65
  -6  -2 -13    4.33    1.66
  -2  -6 -13   -0.85    1.71
   2  -8 -13    2.24    1.78
   6  -8 -13    0.23    1.68
  -3  -6   0   40.59    1.08
  -6  -3   0   40.13    1.04
  -9   6   0   42.27    1.53
  -9   3   0   43.92    1.74
  -6   9   0   40.50    1.00
   3  -9   0   41.12    1.61
  -3  -6   0   39.75    1.25
   6  -9   0   40.78    1.51
  -6  -3   0   39.66    0.91
   9  -6   0   42.50    1.09
  -3  -6   1    0.32    0.45
  -6   9   1    0.65    0.33
  -6  -3   1    0.63    0.64
  -9   6   1    1.14    0.64
  -9   3   1    1.63    0.74
   3  -9   1    0.41    0.71
   6  -9   1    1.08    0.65
  -3  -6   1    1.28    0.54
  -6  -3   1    0.56    0.45
   9  -6   1    0.30    0.33
  -3  -6  -1    0.46    0.38
   3   6  -1    0.06    0.48
  -6  -3  -1    0.07    0.60
  -9   3  -1    0.79    0.76
   6   3  -1   -0.08    0.67
   9  -3  -1    1.30    0.76
  -9   6  -1    0.48    0.42
   9  -6  -1    0.83    0.37
  -9   6  -1    0.84    0.33
  -3   9  -1    1.76    0.77
   3   6  -1    1.24    0.57
  -6   9  -1    0.78    0.69
  -6  -3  -1    0.51    0.43
   9  -6  -1    0.13    0.42
   6  -9  -1    1.07    0.64
  -3  -6  -1    0.17    0.51
   3  -9  -1    1.02    0.72
   9  -6  -1    0.42    0.46
  -6  -3  -1    0.53    0.49
  -6  -3   2   37.07    1.49
  -9   3   2   38.17    1.64
  -9   6   2   38.44    1.46
   3  -9   2   36.48    1.58
  -3  -6   2   36.49    1.36
   6  -9   2   37.61    1.52
   9  -6   2   37.01    1.06
  -6  -3   2   36.84    1.04
   3   6  -2   36.39    1.35
   6   3  -2   37.13    1.58
  -3  -6  -2   36.61    1.03
   9  -3  -2   37.96    1.65
   9  -6  -2   37.38    1.46
  -6  -3  -2   38.07    1.42
   6  -9  -2   34.85    0.93
  -9   3  -2   39.20    1.22
   3  -9  -2   36.88    1.10
  -3   9  -2   39.32    1.69
   3   6  -2   39.38    1.42
   6   3  -2   38.16    1.11
  -6   9  -2   40.46    1.60
  -9   6  -2   40.33    1.37
  -9   3  -2   36.82    1.01
   9  -3  -2   40.88    1.04
   9  -6  -2   37.96    1.28
  -6  -3  -2   38.31    1.09
  -3  -6  -2   37.92    1.38
   6  -9  -2   37.24    1.53
  -6  -3   3    4.64    0.82
  -9   3   3    5.81    0.58
  -9   6   3    4.89    0.79
   6  -9   3    5.53    0.81
   3  -9   3    6.38    0.88
  -3  -6   3    4.72    0.74
  -6  -3   3    5.11    0.57
   9  -6   3    5.05    0.57
   9  -3   3    5.87    0.66
  -9   3   3    5.05    0.58
   3  -9  -3    5.40    0.36
   3   6  -3    6.25    0.76
   6   3  -3    5.14    0.88
   9  -6  -3    5.30    0.81
   9  -3  -3    5.78    0.93
   6  -9  -3    5.24    0.42
  -3   9  -3    5.16    0.95
   3   6  -3    5.15    0.76
  -6   9  -3    6.06    0.87
  -9   6  -3    6.05    0.57
   6   3  -3    4.91    0.57
  -9   3  -3    5.09    0.56
   9  -3  -3    5.17    0.60
   9  -6  -3    5.98    0.77
  -6  -3  -3    6.15    0.60
  -3  -6  -3    5.13    0.76
   3  -9  -3    6.90    0.98
   6  -9  -3    5.97    0.87
  -9   3   4   20.17    1.33
   3  -9   4   20.47    1.26
   6  -9   4   20.01    1.25
  -3  -6   4   20.52    1.12
  -6  -3   4   18.65    0.99
   9  -6   4   18.44    1.01
   9  -3   4   18.67    1.24
  -9   3   4   16.97    0.91
   6   3   4   18.44    1.07
  -9   6   4   16.85    1.02
   3   6  -4   20.27    1.28
   6  -9  -4   19.05    1.07
   6   3  -4   19.01    1.30
   9  -3  -4   18.65    1.30
   9  -6  -4   19.27    1.22
  -6   9  -4   20.78    1.28
  -3   9  -4   21.11    1.35
   3   6  -4   20.25    1.17
  -9   6  -4   17.98    1.30
   6   3  -4   19.19    1.02
  -9   3  -4   18.40    1.12
   9  -3  -4   19.77    0.92
   9  -6  -4   19.60    1.04
  -6  -3  -4   20.76    1.05
  -3  -6  -4   19.68    1.18
   6  -9  -4   19.97    1.26
   3  -9  -4   21.00    1.37
   3  -9   5    3.64    0.99
   6  -9   5    4.23    0.92
  -3  -6   5    4.02    0.86
   9  -6   5    2.87    1.10
  -6  -3   5    3.99    0.79
   9  -3   5    4.06    1.06
  -9   3   5    3.97    0.75
  -9   6   5    2.92    0.87
   6   3   5    3.25    0.91
   3   6  -5    4.13    0.97
   6  -9  -5    4.61    0.71
   6   3  -5    3.69    1.00
   9  -3  -5    3.64    0.97
   9  -6  -5    3.21    0.91
  -6   9  -5    4.57    0.95
  -3   9  -5    3.60    1.01
   3   6  -5    5.44    0.88
  -9   6  -5    3.55    0.78
   6   3  -5    3.79    0.76
  -9   3  -5    2.88    1.00
   9  -3  -5    4.97    0.74
   9  -6  -5    3.30    0.82
  -6  -3  -5    5.81    0.82
  -3  -6  -5    4.07    0.92
   6  -9  -5    4.13    0.96
   3  -9  -5    3.74    1.05
   3  -9   6   27.07    1.76
   6  -9   6   26.65    1.66
  -3  -6   6   23.25    1.63
   9  -6   6   22.36    2.09
  -6  -3   6   23.76    1.58
   9  -3   6   22.65    1.64
  -9   3   6   23.15    1.62
   6   3   6   25.20    1.76
  -9   6   6   25.53    1.70
   3   6   6   24.31    1.81
   3   6  -6   24.60    1.73
   6  -9  -6   26.35    1.60
   6   3  -6   27.13    1.82
   9  -6  -6   26.11    1.69
   9  -3  -6   25.73    1.19
  -6   9  -6   26.12    1.72
  -3   9  -6   27.25    1.78
   3   6  -6   26.89    1.66
  -9   6  -6   24.27    1.59
   6   3  -6   27.87    1.58
  -9   3  -6   23.92    1.55
   9  -3  -6   26.04    2.03
   9  -6  -6   24.49    1.55
  -6  -3  -6   23.66    1.65
  -3  -6  -6   25.90    1.69
   6  -9  -6   25.84    1.76
   3  -9  -6   27.99    1.81
   3  -9   7    5.72    1.21
   6  -9   7    3.89    0.74
  -3  -6   7    4.11    1.12
  -6  -3   7    4.51    1.10
   9  -6   7    3.57    1.13
   9  -3   7    4.60    1.14
  -9   3   7    3.32    1.55
  -9   6   7    3.22    1.57
   6   3   7    2.92    1.21
   3   6   7    2.66    1.24
  -6   9   7    3.50    1.29
  -3   9   7    3.00    1.27
   6  -9  -7    3.31    1.09
   3   6  -7    2.56    1.16
   6   3  -7    3.10    1.23
   9  -3  -7    4.12    1.24
   9  -6  -7    3.70    1.23
  -3   9  -7    3.32    1.21
   3   6  -7    3.70    1.14
  -6   9  -7    5.36    1.21
  -9   6  -7    3.03    1.12
   6   3  -7    3.82    1.08
  -9   3  -7    4.83    1.07
   9  -3  -7    4.89    1.09
  -6  -3  -7    3.65    1.11
  -3  -6  -7    3.69    1.17
   6  -9  -7    3.16    1.21
   3  -9  -7    3.97    1.29
   3  -9   8   -0.77    1.17
   6  -9   8    0.18    0.69
  -3  -6   8   -0.68    1.09
  -6  -3   8    1.47    1.07
   9  -3   8    0.78    1.11
  -9   3   8    2.72    1.45
  -9   6   8    1.43    1.12
   6   3   8    0.89    1.14
   3   6   8    0.80    1.20
  -6   9   8    0.62    0.75
  -3   9   8    0.06    1.24
   3   6  -8    0.79    1.05
   6  -9  -8    1.07    1.10
   6   3  -8    1.92    1.16
   9  -3  -8    1.15    0.73
   9  -6  -8   -1.11    1.21
  -3   9  -8    0.64    0.72
  -6   9  -8    2.09    1.14
   3   6  -8    2.26    1.06
   6   3  -8   -1.14    1.04
  -9   6  -8    0.06    1.10
  -9   3  -8    0.62    1.04
   9  -3  -8    1.63    1.04
   9  -6  -8   -0.34    1.07
  -6  -3  -8    0.02    1.08
  -3  -6  -8    1.56    1.14
   6  -9  -8    0.67    1.12
   3  -9  -8   -0.22    1.21
   3  -9   9    1.08    1.30
   6  -9   9    1.28    1.26
  -3  -6   9    0.92    1.30
   9  -6   9    0.15    1.24
  -6  -3   9    1.46    1.23
   9  -3   9    2.03    1.32
  -9   3   9    3.47    1.29
  -9   6   9    0.23    1.40
   6   3   9    2.43    1.35
   3   6   9    0.74    1.36
  -3   9   9    1.15    0.87
  -6   9   9    1.54    1.36
   3   6  -9   -0.73    1.18
   6  -9  -9   -0.29    1.31
   9  -6  -9    2.09    1.43
   6   3  -9    0.07    1.31
   9  -3  -9    1.09    1.41
  -3   9  -9    0.41    1.33
   3   6  -9    0.37    1.22
  -6   9  -9    0.51    1.32
  -9   6  -9    2.58    1.28
   6   3  -9    1.24    1.23
  -9   3  -9    2.42    1.22
   9  -3  -9    2.58    1.24
   9  -6  -9    1.74    1.21
  -6  -3  -9    2.69    1.25
  -3  -6  -9    1.38    1.30
   6  -9  -9    1.93    1.31
   3  -9  -9    1.02    1.39
   3  -9  10    7.21    1.83
   6  -9  10    8.42    1.79
  -3  -6  10    6.89    1.78
   9  -6  10    6.79    1.78
  -6  -3  10    6.41    1.77
   9  -3  10    8.77    1.90
  -9   3  10    9.19    1.82
  -9   6  10    9.34    1.91
   6   3  10    8.55    1.88
   3   6  10    5.52    1.91
  -6   9  10    8.52    1.98
  -3   9  10    9.40    1.89
   3   6 -10    9.23    1.03
   6  -9 -10    9.73    1.89
   6   3 -10    8.50    1.81
   9  -3 -10    7.60    1.98
   9  -6 -10    8.32    2.01
  -3   9 -10    9.36    1.83
   3   6 -10    7.99    1.70
  -6   9 -10    9.35    1.80
  -9   6 -10    8.32    1.79
   6   3 -10    8.13    1.74
  -9   3 -10    9.31    1.79
   9  -3 -10    7.53    1.78
   9  -6 -10    7.94    1.70
  -6  -3 -10    8.27    1.75
  -3  -6 -10    6.06    1.74
   3  -9 -10   10.32    1.17
   6  -9 -10    9.09    1.76
   3  -9  11    3.07    1.04
  -3  -6  11    1.59    1.63
   6  -9  11    3.14    1.66
   9  -6  11    3.39    1.63
  -6  -3  11    2.66    1.61
   9  -3  11    2.57    1.72
  -9   3  11    2.06    1.71
  -9   6  11    2.08    1.78
   6   3  11   -0.10    1.74
   3   6  11    1.19    1.75
  -6   9  11    2.15    1.83
  -3   9  11    2.22    1.73
   6  -9 -11    0.33    1.74
   3   6 -11    3.76    0.94
   6   3 -11    2.69    1.66
   9  -3 -11    2.67    1.86
   9  -6 -11    0.73    1.93
   3   6 -11    2.13    1.56
  -3   9 -11    1.56    1.62
  -6   9 -11    1.59    1.63
  -9   6 -11    0.94    1.67
   6   3 -11    1.31    1.58
  -9   3 -11    4.76    1.60
   9  -3 -11    5.59    1.54
   9  -6 -11    2.96    1.57
  -6  -3 -11    2.33    1.58
  -3  -6 -11    2.47    1.02
   3  -9 -11    2.94    1.67
   6  -9 -11    2.13    1.59
   6  -9  12    2.73    1.85
   3  -9  12    1.55    1.90
  -3  -6  12    2.56    1.08
   9  -6  12    4.95    1.78
  -6  -3  12    2.19    1.80
   9  -3  12    3.34    1.92
  -9   3  12    4.70    1.89
  -9   6  12    2.74    1.97
   6   3  12    0.42    1.92
  -6   9  12    0.68    2.04
   3   6  12    2.72    1.91
  -3   9  12    2.16    1.92
   3   6 -12    1.44    1.75
   6  -9 -12    2.72    2.00
   6   3 -12    1.42    1.90
   9  -3 -12    5.09    2.10
   9  -6 -12    3.57    1.31
   3   6 -12    1.54    1.67
  -3   9 -12    2.20    1.78
  -6   9 -12    0.55    1.12
  -9   6 -12    2.56    1.84
   6   3 -12    3.20    1.77
  -9   3 -12    4.52    1.77
   9  -3 -12    2.81    1.74
   9  -6 -12    5.18    1.66
  -6  -3 -12    3.11    1.71
  -3  -6 -12    3.65    1.75
   3  -9 -12    3.24    1.83
   6  -9 -12    3.75    1.12
   6  -9  13    1.42    1.12
   3  -9  13    0.56    1.84
  -3  -6  13   -0.56    1.81
   9  -6  13   -0.14    1.82
  -6  -3  13   -1.04    1.83
   9  -3  13   -1.69    1.94
  -9   3  13    2.58    1.88
  -9   6  13    4.02    1.93
   6   3  13   -0.15    1.93
   3   6  13    0.25    1.99
  -6   9  13   -0.40    2.02
  -3   9  13    2.40    1.87
   3   6 -13   -0.17    1.85
   6  -9 -13   -4.23    2.11
   6   3 -13    0.61    1.97
   9  -3 -13   -0.81    2.19
   9  -6 -13   -0.59    1.37
   3   6 -13   -0.94    1.69
  -6   9 -13    2.38    1.11
  -3   9 -13    2.76    1.77
  -9   6 -13   -0.04    1.83
   6   3 -13   -0.31    1.78
  -9   3 -13   -0.82    1.76
   9  -3 -13   -0.31    1.73
   9  -6 -13    2.73    1.66
  -6  -3 -13    2.44    1.05
  -3  -6 -13    1.47    1.76
   6  -9 -13    1.79    1.74
   3  -9 -13    0.72    1.86
  -4  -6   0   12.73    0.88
  -6  -4   0   13.57    0.86
 -10   4   0   13.79    1.12
  -6  10   0   11.60    0.52
 -10   6   0   14.01    1.04
   6 -10   0   14.88    1.01
   4 -10   0   14.56    1.07
  -4  -6   0   13.11    0.74
  -6  -4   0   12.49    0.56
  10  -6   0   13.11    0.54
  -4  -6   1    3.91    0.58
  -6  -4   1    4.98    0.74
 -10   6   1    5.03    0.83
 -10   4   1    5.73    0.89
   4 -10   1    5.82    0.86
   6 -10   1    5.00    0.83
  -4  -6   1    4.54    0.59
  -6  -4   1    4.73    0.64
  10  -6   1    4.61    0.48
  -4  -6  -1    4.86    0.51
  -6  -4  -1    5.28    0.67
 -10   6  -1    3.78    0.86
 -10   4  -1    6.52    0.95
   4   6  -1    4.19    0.84
   6   4  -1    4.53    0.77
  10  -4  -1    4.85    0.90
   4   6  -1    4.92    0.65
  -4  10  -1    6.22    0.92
  -6  10  -1    5.97    0.89
  -6  -4  -1    3.96    0.45
  -4  -6  -1    4.86    0.57
   4 -10  -1    3.86    0.53
   6 -10  -1    6.28    0.83
  10  -6  -1    4.19    0.43
  10  -6  -1    4.82    0.48
  -6  -4  -1    4.76    0.64
  -6  -4   2    5.34    0.80
 -10   6   2    5.86    0.84
 -10   4   2    6.75    0.93
   4 -10   2    5.82    0.59
   6 -10   2    7.06    0.85
  -4  -6   2    5.82    0.71
  -6  -4   2    6.35    0.55
  10  -6   2    5.71    0.63
  10  -4   2    5.07    0.49
   4   6  -2    5.19    0.76
   6   4  -2    4.47    0.89
  -6  -4  -2    7.77    0.72
  -4  -6  -2    6.61    0.55
  10  -4  -2    5.24    0.97
  10  -6  -2    7.18    0.87
 -10   4  -2    6.45    1.00
  -4  -6  -2    5.71    0.65
   4 -10  -2    6.56    0.92
   6 -10  -2    6.92    0.89
  -4  10  -2    6.88    0.62
   6   4  -2    5.89    0.57
   4   6  -2    6.75    0.75
  -6  10  -2    7.33    0.58
 -10   6  -2    5.07    0.64
 -10   4  -2    5.04    0.48
  10  -4  -2    6.24    0.55
  10  -6  -2    6.55    0.62
  -6  -4  -2    6.04    0.58
  -4  -6  -2    6.54    0.73
   6 -10  -2    5.81    0.58
 -10   4   3    3.94    0.90
 -10   6   3    4.11    0.51
   4 -10   3    3.87    0.87
   6 -10   3    3.31    0.51
  -4  -6   3    4.25    0.68
  -6  -4   3    2.53    0.57
  10  -6   3    3.29    0.54
  10  -4   3    2.92    0.62
 -10   4   3    2.25    0.54
   4   6  -3    3.11    0.77
   6   4  -3    3.36    0.85
  10  -4  -3    2.52    0.91
  10  -6  -3    3.59    0.84
   6 -10  -3    2.27    0.40
  -4  10  -3    2.62    0.93
  -6  10  -3    3.67    0.89
   4   6  -3    3.40    0.71
 -10   6  -3    2.98    0.51
 -10   4  -3    2.34    0.53
  10  -4  -3    3.43    0.61
  10  -6  -3    3.40    0.71
  -6  -4  -3    3.52    0.58
  -4  -6  -3    3.76    0.70
   6 -10  -3    3.45    0.89
   4 -10  -3    3.51    0.93
 -10   6   4    1.58    0.81
 -10   4   4    2.82    0.91
   4 -10   4    2.08    0.88
   6 -10   4    2.77    0.83
  -4  -6   4    0.22    0.72
  -6  -4   4    1.99    0.64
  10  -6   4    1.08    0.86
  10  -4   4    1.81    0.81
 -10   4   4    2.73    0.53
   4 -10  -4    0.87    0.49
   4   6  -4    1.49    0.85
   6 -10  -4    1.73    0.59
   6   4  -4    2.47    0.89
  10  -6  -4    1.90    0.85
  10  -4  -4    1.77    0.88
  -4  10  -4    3.09    0.91
   4   6  -4    1.02    0.75
  -6  10  -4    2.96    0.87
   6   4  -4    2.45    0.65
 -10   6  -4    1.52    0.61
 -10   4  -4    1.76    0.70
  10  -4  -4    1.75    0.57
  10  -6  -4    1.95    0.62
  -6  -4  -4    1.39    0.68
  -4  -6  -4    1.89    0.75
   6 -10  -4    1.67    0.87
   4 -10  -4    0.93    0.94
   6 -10   5    2.99    0.61
   4 -10   5    3.91    1.00
  -4  -6   5    2.19    0.85
  -6  -4   5    3.22    0.79
  10  -6   5    2.22    1.11
  10  -4   5    3.10    0.81
 -10   4   5    2.57    0.78
 -10   6   5    2.45    0.82
   6   4   5    2.51    0.89
   4   6  -5    3.48    1.05
   6 -10  -5    3.14    0.89
   6   4  -5    3.51    1.04
  10  -4  -5    3.24    0.99
  10  -6  -5    2.56    0.97
  -4  10  -5    2.83    1.06
   4   6  -5    3.00    0.89
  -6  10  -5    4.16    0.99
   6   4  -5    2.90    0.80
 -10   6  -5    2.98    0.76
 -10   4  -5    0.06    0.98
  10  -4  -5    1.96    1.07
  10  -6  -5    3.58    0.78
  -6  -4  -5    2.56    0.86
  -4  -6  -5    2.84    0.94
   6 -10  -5    3.70    0.99
   4 -10  -5    3.51    1.05
   4 -10   6    2.26    1.10
   6 -10   6    1.56    1.06
  -4  -6   6    2.83    0.95
  -6  -4   6    2.72    0.91
  10  -6   6    1.25    0.99
  10  -4   6    1.80    0.95
 -10   4   6    0.33    0.95
 -10   6   6    1.94    1.01
   6   4   6    2.28    1.04
   4   6   6    1.58    1.07
   4   6  -6    1.34    1.13
   6 -10  -6    0.90    1.11
   6   4  -6    1.64    1.12
  10  -6  -6    3.88    1.04
  10  -4  -6    2.36    1.07
  -6  10  -6    2.10    1.09
  -4  10  -6    3.31    1.10
   4   6  -6    1.61    0.99
   6   4  -6    1.25    0.96
 -10   6  -6    1.38    0.90
 -10   4  -6    0.63    0.89
  10  -4  -6    2.94    0.93
  10  -6  -6    2.59    0.93
  -6  -4  -6    2.91    0.96
  -4  -6  -6    3.11    1.02
   4 -10  -6    2.15    1.14
   6 -10  -6    1.49    1.06
   4 -10   7   -0.18    0.69
   6 -10   7    0.25    1.06
  -4  -6   7    0.32    0.99
  -6  -4   7   -0.03    0.99
  10  -6   7    0.25    1.04
  10  -4   7    0.04    1.04
 -10   4   7   -0.21    1.02
 -10   6   7    1.88    1.05
   6   4   7    0.06    1.15
   4   6   7    1.51    1.12
   6 -10  -7   -0.99    1.31
   4   6  -7    0.09    1.10
   6   4  -7    1.75    1.13
  10  -4  -7   -0.13    1.08
  10  -6  -7    0.47    1.10
  -6  10  -7    1.90    0.67
  -4  10  -7   -0.43    1.13
   4   6  -7    1.78    1.01
   6   4  -7    0.60    0.98
 -10   6  -7   -0.16    0.98
 -10   4  -7    0.08    0.95
  10  -4  -7    0.51    1.00
  10  -6  -7   -1.45    1.01
  -6  -4  -7    1.13    1.01
  -4  -6  -7    0.60    1.04
   6 -10  -7    0.75    1.11
   4 -10  -7    0.09    1.15
   4 -10   8   -0.98    0.70
   6 -10   8    0.73    1.13
  -4  -6   8    0.50    0.65
  -6  -4   8   -0.82    1.07
  10  -6   8    0.20    1.07
  10  -4   8    1.31    1.11
 -10   4   8   -0.01    1.07
 -10   6   8   -0.96    1.12
   6   4   8   -1.23    1.20
   4   6   8    0.31    1.17
  -4  10   8    0.52    0.71
  -6  10   8    2.52    1.20
   4   6  -8   -0.07    1.13
   6 -10  -8    1.97    1.07
   6   4  -8    0.55    1.13
  10  -4  -8   -0.17    1.17
  10  -6  -8   -0.62    1.17
  -4  10  -8    0.90    1.16
  -6  10  -8    0.09    1.15
   4   6  -8    0.49    1.10
   6   4  -8   -1.00    1.02
 -10   6  -8    0.34    1.07
 -10   4  -8    0.32    1.01
  10  -4  -8   -0.54    1.40
  10  -6  -8   -0.91    1.04
  -6  -4  -8    0.01    1.05
  -4  -6  -8   -0.02    1.11
   6 -10  -8    1.16    1.13
   4 -10  -8   -0.19    1.24
   4 -10   9    0.93    0.80
   6 -10   9    1.12    1.28
  -4  -6   9    0.84    1.25
  -6  -4   9    0.67    1.24
  10  -6   9    1.85    1.27
  10  -4   9    1.05    1.32
 -10   4   9    1.23    1.29
 -10   6   9   -0.43    1.34
   6   4   9   -0.17    1.40
   4   6   9    1.35    1.34
  -6  10   9   -1.88    1.40
  -4  10   9   -1.46    1.34
   6 -10  -9    0.95    1.29
   4   6  -9    1.35    0.75
   6   4  -9    0.19    1.28
  10  -6  -9    0.96    1.42
  10  -4  -9    1.70    1.40
  -4  10  -9   -0.66    1.35
  -6  10  -9    1.49    1.33
   4   6  -9   -0.31    1.21
   6   4  -9    1.04    1.22
 -10   6  -9    2.32    1.27
 -10   4  -9    2.28    1.23
  10  -4  -9    0.28    1.25
  10  -6  -9   -1.12    1.23
  -6  -4  -9   -1.39    0.77
  -4  -6  -9    0.39    1.23
   4 -10  -9    2.48    1.32
   6 -10  -9    0.23    1.30
   4 -10  10    0.32    1.46
   6 -10  10    1.49    1.45
  -4  -6  10    2.06    1.42
  -6  -4  10    0.19    1.38
  10  -6  10   -0.84    1.45
  10  -4  10    2.51    1.52
 -10   4  10    0.04    1.48
 -10   6  10    1.51    1.53
   6   4  10    1.58    1.55
   4   6  10    0.26    1.55
  -6  10  10    0.16    1.53
  -4  10  10   -0.24    1.58
   6 -10 -10    1.61    1.51
   4   6 -10    0.60    1.35
   6   4 -10    0.67    1.42
  10  -4 -10    0.18    1.01
  10  -6 -10   -0.53    1.61
  -4  10 -10    0.52    1.47
  -6  10 -10    0.30    1.49
   4   6 -10    0.50    1.35
   6   4 -10    1.08    1.40
 -10   6 -10   -0.65    1.45
 -10   4 -10    1.30    1.39
  10  -4 -10    3.80    1.42
  10  -6 -10    1.16    1.35
  -6  -4 -10   -0.47    1.36
  -4  -6 -10    1.53    1.39
   4 -10 -10    0.70    1.49
   6 -10 -10    1.87    0.91
   4 -10  11    2.68    1.60
   6 -10  11    1.11    0.97
  -4  -6  11   -0.73    1.51
  -6  -4  11   -0.25    1.51
  10  -6  11   -1.02    1.55
  10  -4  11    1.60    1.67
 -10   6  11    0.92    1.67
   6   4  11    0.57    1.67
   4   6  11   -0.16    1.69
  -6  10  11    0.17    1.05
  -4  10  11    0.90    1.67
   6 -10 -11    0.68    1.68
   4   6 -11   -0.59    1.46
   6   4 -11    0.22    1.54
  10  -4 -11   -0.15    1.79
  10  -6 -11    0.77    1.81
  -4  10 -11    0.73    1.01
  -6  10 -11    0.19    1.60
   4   6 -11    0.76    0.92
   6   4 -11    1.59    1.53
 -10   6 -11   -0.92    1.57
 -10   4 -11    2.88    1.51
  10  -4 -11    1.66    1.55
  10  -6 -11    1.82    1.46
  -6  -4 -11   -0.71    1.49
  -4  -6 -11    2.55    1.51
   6 -10 -11   -0.18    1.52
   4 -10 -11    0.43    1.58
   4 -10  12    0.40    1.69
   6 -10  12   -0.90    1.70
  -4  -6  12    2.48    1.57
  -6  -4  12    1.88    1.63
  10  -6  12    1.46    1.67
  10  -4  12    0.85    1.79
 -10   4  12    2.29    1.75
 -10   6  12   -0.49    1.79
   6   4  12   -1.12    1.81
   4   6  12    0.01    1.79
  -4  10  12   -1.71    1.77
  -6  10  12   -0.70    1.13
   6 -10 -12    2.27    1.84
   4   6 -12   -1.22    1.60
   6   4 -12   -0.45    1.67
  10  -4 -12    0.93    1.91
  10  -6 -12    0.77    1.95
  -4  10 -12   -0.51    1.65
  -6  10 -12   -0.05    1.67
   4   6 -12    2.68    1.57
   6   4 -12   -2.04    1.59
 -10   6 -12   -0.70    1.64
 -10   4 -12    0.78    1.65
  10  -4 -12   -0.22    1.62
  10  -6 -12   -0.90    1.53
  -6  -4 -12   -0.32    1.56
  -4  -6 -12   -0.77    1.57
   4 -10 -12   -1.17    1.66
  -5  -6   0   38.43    1.28
  -6  -5   0   40.09    1.43
 -11   5   0   45.10    1.90
 -11   6   0   44.02    1.82
   6 -11   0   38.04    1.18
   5 -11   0   37.17    1.21
  -6  -5   0   39.09    1.11
  -5  -6   0   39.89    1.22
  11  -6   0   43.60    0.98
  11  -6   0   41.78    0.95
  -5  -6   1   32.25    1.30
  -6  -5   1   31.76    1.39
 -11   5   1   36.27    1.71
 -11   6   1   36.35    1.64
   5 -11   1   36.06    1.63
   6 -11   1   36.19    1.61
  -5  -6   1   34.57    1.44
  -6  -5   1   33.50    1.12
  11  -6   1   37.09    1.02
  11  -5   1   35.72    0.88
  -5  -6  -1   32.47    1.13
  -6  -5  -1   34.25    1.27
 -11   5  -1   37.47    1.83
 -11   6  -1   32.22    1.83
   6   5  -1   29.29    1.47
   5   6  -1   31.38    1.37
  -6  11  -1   33.60    1.17
  -5  11  -1   34.07    1.18
   5 -11  -1   37.48    1.71
   6 -11  -1   36.29    1.66
  -6  -5  -1   31.65    1.26
  -5  -6  -1   31.47    1.12
  11  -5  -1   37.47    0.87
  11  -6  -1   35.51    1.01
  -6  -5  -1   34.69    1.13
  -5  -6   2    8.16    0.83
  -6  -5   2    8.32    0.90
 -11   6   2   10.29    1.05
 -11   5   2   10.33    0.69
   5 -11   2   10.23    0.69
   6 -11   2   10.87    1.03
  -5  -6   2    9.57    0.77
  -6  -5   2    9.17    0.93
  11  -6   2    9.93    0.71
  11  -5   2    9.25    0.62
   6   5  -2    9.62    1.00
   5   6  -2    7.72    0.93
  -5  -6  -2    9.68    0.70
  -6  -5  -2   11.04    0.81
 -11   6  -2    9.80    1.20
  11  -6  -2   10.41    0.69
  11  -5  -2   10.36    1.12
 -11   5  -2   12.12    1.21
   6   5  -2    9.93    0.74
   5 -11  -2   10.14    0.70
  -6  -5  -2    8.89    0.65
  -6  11  -2   11.01    1.15
   6 -11  -2   10.40    0.69
  -5  -6  -2    9.23    0.70
   5   6  -2    9.91    0.82
  -5  11  -2   10.17    1.19
 -11   6  -2    9.41    0.62
 -11   5  -2    8.75    0.49
  11  -5  -2    9.76    0.64
  11  -6  -2    9.61    0.71
  -6  -5  -2    8.77    0.91
  -5  -6  -2   11.38    1.05
 -11   5   3   14.47    1.23
 -11   6   3   13.86    1.19
   6 -11   3   14.28    1.15
   5 -11   3   14.20    1.20
  -5  -6   3   14.15    1.22
  -6  -5   3   12.31    1.12
  11  -6   3   11.14    1.00
  11  -5   3   10.97    0.72
   5   6  -3   12.70    1.14
   6   5  -3   12.26    1.17
  11  -5  -3   13.19    1.25
  11  -6  -3   13.98    1.19
  -6  -5  -3   14.16    0.96
  -5  -6  -3   14.09    1.12
  -5  11  -3   14.96    1.27
   6   5  -3   12.75    0.90
  -6  11  -3   14.56    1.27
   5   6  -3   12.97    0.98
 -11   6  -3   10.89    0.89
 -11   5  -3   10.64    0.77
  11  -5  -3   14.26    0.95
  11  -6  -3   13.49    0.79
  -6  -5  -3   12.17    0.87
  -5  -6  -3   12.68    0.93
   5 -11  -3   14.87    1.30
   6 -11  -3   15.06    1.25
 -11   5   4    9.03    1.13
 -11   6   4    7.62    1.10
   5 -11   4    8.02    0.73
   6 -11   4    7.78    1.10
  -5  -6   4    6.90    0.90
  -6  -5   4    7.53    0.85
  11  -6   4    5.78    1.08
  11  -5   4    4.70    1.02
 -11   5   4    4.73    0.69
   5   6  -4    6.61    1.13
   6   5  -4    7.16    1.12
  11  -5  -4    7.83    1.14
  11  -6  -4    8.15    1.09
  -6  11  -4    8.58    1.16
  -5  11  -4    7.80    1.18
   6   5  -4    6.70    1.15
   5   6  -4    7.37    0.92
 -11   6  -4    6.15    0.94
 -11   5  -4    5.29    0.88
  11  -5  -4    5.42    1.03
  11  -6  -4    6.91    0.79
  -6  -5  -4    6.28    0.87
  -5  -6  -4    6.69    0.93
   5 -11  -4    8.70    1.19
   6 -11  -4    8.52    1.13
   5 -11   5   19.24    1.62
   6 -11   5   20.28    1.58
  -5  -6   5   17.35    1.34
  -6  -5   5   16.64    1.35
  11  -6   5   14.69    1.79
  11  -5   5   14.92    1.36
 -11   5   5   12.31    1.67
 -11   6   5   15.38    1.68
   5 -11  -5   18.05    0.98
   6   5  -5   18.64    1.66
   6 -11  -5   15.60    1.28
   5   6  -5   18.04    1.70
  11  -5  -5   19.90    1.62
  11  -6  -5   19.19    1.57
  -6  11  -5   21.40    1.66
  -5  11  -5   22.63    1.65
   5   6  -5   18.76    1.43
   6   5  -5   18.03    1.42
 -11   6  -5   15.41    1.26
 -11   5  -5   15.57    1.19
  11  -5  -5   18.21    1.38
  11  -6  -5   18.09    1.36
  -6  -5  -5   18.49    1.40
  -5  -6  -5   20.11    1.44
   5 -11  -5   21.54    1.70
   6 -11  -5   20.87    1.61
   5 -11   6    3.67    1.17
   6 -11   6    2.67    1.14
  -5  -6   6    1.16    0.99
  -6  -5   6    3.08    0.98
  11  -6   6    2.85    1.00
  11  -5   6    1.68    1.39
 -11   5   6    2.36    1.28
 -11   6   6    2.66    1.05
   5 -11  -6    1.95    1.09
   6 -11  -6    3.11    0.84
   5   6  -6    2.31    1.25
   6   5  -6    2.56    1.22
  11  -5  -6    2.21    1.19
  11  -6  -6    1.45    1.15
  -6  11  -6    2.58    1.19
  -5  11  -6    4.03    1.22
   6   5  -6    2.50    1.02
   5   6  -6    2.68    1.06
 -11   6  -6    2.46    0.92
 -11   5  -6    2.35    0.91
  11  -5  -6    3.67    1.00
  11  -6  -6    3.21    1.01
  -6  -5  -6    3.56    1.01
  -5  -6  -6    1.98    1.05
   6 -11  -6    3.30    1.18
   5 -11  -6    3.49    1.23
   6 -11   7    8.38    1.50
   5 -11   7   10.45    1.51
  -5  -6   7    5.98    1.33
  -6  -5   7    6.33    1.34
  11  -6   7    6.48    1.42
  11  -5   7    6.68    1.46
 -11   5   7    8.49    1.39
 -11   6   7    7.05    1.50
   6   5   7   10.36    1.58
   5   6   7    8.36    1.53
   5 -11  -7    7.61    1.25
   6 -11  -7    7.93    1.31
   6   5  -7    8.36    1.02
   5   6  -7    9.68    1.58
  11  -5  -7    9.34    1.53
  11  -6  -7    8.46    1.50
  -6  11  -7    9.96    1.51
  -5  11  -7   10.77    1.53
   5   6  -7    7.55    1.40
   6   5  -7   11.03    1.44
 -11   6  -7    7.06    1.31
 -11   5  -7    7.59    1.32
  11  -5  -7    8.35    1.43
  11  -6  -7    7.15    1.86
  -6  -5  -7    8.96    1.38
  -5  -6  -7    5.39    1.40
   6 -11  -7    8.79    1.53
   5 -11  -7    9.47    1.55
   6 -11   8    0.85    0.77
   5 -11   8    2.01    1.30
  -5  -6   8    2.72    1.14
  -6  -5   8    2.04    1.16
  11  -6   8    1.99    1.22
  11  -5   8   -0.54    1.23
 -11   5   8   -0.09    1.21
 -11   6   8    2.08    1.22
   6   5   8    0.27    1.32
   5   6   8    1.91    1.36
   6 -11  -8    1.24    1.53
   5   6  -8    1.65    1.26
   6   5  -8    0.87    1.31
  11  -5  -8    2.35    1.31
  11  -6  -8    2.23    1.29
  -5  11  -8   -0.68    1.31
  -6  11  -8   -0.48    1.28
   6   5  -8    2.47    1.18
   5   6  -8    2.84    1.20
 -11   6  -8   -0.19    1.13
 -11   5  -8    1.74    1.12
  11  -5  -8    0.20    1.17
  11  -6  -8    1.31    1.16
  -6  -5  -8    1.84    1.13
  -5  -6  -8    0.97    1.18
   6 -11  -8    1.85    1.28
   5 -11  -8   -0.35    1.30
   6 -11   9    3.92    1.50
   5 -11   9    4.10    1.53
  -5  -6   9    3.22    0.92
  -6  -5   9    3.09    1.45
  11  -6   9    3.87    1.58
  11  -5   9    5.15    1.59
 -11   5   9    2.89    1.58
 -11   6   9    4.03    1.58
   6   5   9    4.36    1.67
   5   6   9    4.80    1.64
   6 -11  -9    0.50    1.57
   6   5  -9    4.37    1.53
   5   6  -9    4.18    1.48
  11  -6  -9    4.23    1.05
  11  -5  -9    5.42    1.03
  -5  11  -9    3.83    0.97
  -6  11  -9    3.49    1.55
   5   6  -9    5.33    1.50
   6   5  -9    4.94    1.45
 -11   6  -9    3.84    1.43
 -11   5  -9    3.29    1.47
  11  -5  -9    5.36    2.00
  11  -6  -9    1.86    1.47
  -6  -5  -9    3.39    1.40
  -5  -6  -9    1.82    1.44
   6 -11  -9    2.55    1.55
   5 -11  -9    2.40    1.56
   6 -11  10   -0.79    1.54
   5 -11  10    0.20    1.53
  -6  -5  10    0.97    1.46
  -5  -6  10    1.71    1.49
  11  -6  10    3.55    1.56
  11  -5  10    1.19    1.61
 -11   5  10    3.34    1.56
 -11   6  10    0.84    1.58
   6   5  10    3.60    1.74
   5   6  10    1.07    1.65
  -5  11  10    1.64    0.99
  -6  11  10    1.25    1.60
   6 -11 -10    1.38    1.60
   6   5 -10    2.67    1.48
   5   6 -10    2.10    1.43
  11  -6 -10    1.91    1.68
  11  -5 -10   -0.11    1.67
  -6  11 -10    1.13    1.55
  -5  11 -10    0.55    1.53
   5   6 -10   -0.09    1.51
   6   5 -10    1.55    1.45
 -11   5 -10    2.20    1.49
 -11   6 -10    2.34    1.50
  11  -6 -10    1.13    1.46
  11  -5 -10   -1.70    1.51
  -6  -5 -10    2.07    1.45
   6 -11 -10    2.76    1.53
   5 -11 -10    0.07    1.58
   5 -11  11   -0.10    1.68
   6 -11  11    0.29    1.69
  -6  -5  11    1.12    1.57
  11  -6  11    2.95    1.74
  11  -5  11    0.43    1.78
 -11   5  11    1.12    1.79
 -11   6  11   -0.02    1.79
   6   5  11    1.57    1.92
   5   6  11    0.17    1.81
  -5  11  11    0.38    1.72
  -6  11  11    3.03    1.73
   6 -11 -11    1.57    1.83
   6   5 -11    1.13    1.00
   5   6 -11    0.25    1.54
  11  -5 -11    1.97    1.88
  11  -6 -11    1.98    1.93
  -5  11 -11    1.36    1.62
  -6  11 -11    2.00    1.70
   6   5 -11    2.16    1.02
   5   6 -11   -0.18    1.62
 -11   6 -11    0.08    1.69
 -11   5 -11    3.30    1.64
  11  -5 -11    1.77    1.64
  11  -6 -11   -0.84    1.58
  -6  -5 -11    2.92    1.56
  -5  -6 -11   -0.83    1.61
   5 -11 -11    2.36    1.70
   6 -11 -11    1.26    1.64
   6 -11  12   -0.88    1.80
   5 -11  12    5.07    1.84
  -5  -6  12    1.69    1.69
  -6  -5  12   -0.40    1.71
  11  -6  12    1.12    1.88
  11  -5  12    1.53    1.90
 -11   5  12    1.71    1.93
 -11   6  12    0.66    1.95
   6   5  12    2.38    2.05
   5   6  12    0.43    1.94
  -6  11  12    2.68    1.90
  -5  11  12   -0.37    1.90
   6 -11 -12    3.43    2.01
   6   5 -12   -1.32    1.75
   5   6 -12    0.65    1.72
  11  -6 -12    0.92    2.09
  11  -5 -12   -0.85    2.11
  -5  11 -12   -1.43    1.81
  -6  11 -12   -0.84    1.85
   6   5 -12    4.02    1.74
   5   6 -12    0.56    1.73
 -11   5 -12    1.38    1.78
 -11   6 -12    0.66    1.80
  11  -5 -12    1.38    1.76
  11  -6 -12    0.57    1.67
  -5  -6 -12    0.07    1.70
  -6  -5 -12    1.02    1.68
   5 -11 -12    0.33    1.11
   6 -11 -12   -0.49    1.75
  -6  -6   0   24.88    1.11
 -12   6   0   25.28    1.06
   6 -12   0   25.03    1.45
  -6  -6   0   24.51    0.96
  12  -6   0   27.17    0.62
  -6  -6   1    0.43    0.61
 -12   6   1    0.97    0.86
   6 -12   1    1.68    0.85
  -6  -6   1    0.36    0.52
  12  -6   1    0.76    0.34
  -6  -6  -1    2.03    0.76
 -12   6  -1    0.29    0.91
   6   6  -1   -0.24    0.68
  -6  -6  -1    0.79    0.48
   6 -12  -1    0.52    0.86
  12  -6  -1    0.70    0.24
  12  -6  -1    0.33    0.42
  -6  -6  -1    0.95    0.53
  -6  -6   2    9.79    0.98
 -12   6   2   11.15    0.74
   6 -12   2   11.17    1.18
  -6  -6   2   10.70    0.82
  12  -6   2   11.12    0.88
  -6  -6  -2   10.55    0.82
   6   6  -2   10.91    1.04
 -12   6  -2   10.91    1.32
  12  -6  -2   11.28    1.20
  -6  12  -2   11.40    0.80
   6 -12  -2   11.40    1.20
  -6  -6  -2   10.19    0.73
   6   6  -2   11.11    0.84
  12  -6  -2   13.01    0.75
  -6  -6  -2   10.88    0.81
 -12   6   3    0.45    0.87
   6 -12   3   -0.15    0.88
  -6  -6   3    0.26    0.62
  12  -6   3    0.01    0.63
   6   6  -3    0.59    0.82
  12  -6  -3   -0.31    0.89
  -6  -6  -3   -0.10    0.62
 -12   6  -3    0.11    0.61
   6 -12  -3   -0.38    0.90
  -6  12  -3    0.43    0.94
   6   6  -3    0.59    0.64
 -12   6  -3    1.54    0.54
  12  -6  -3   -0.20    0.65
  -6  -6  -3    0.24    0.61
   6 -12  -3   -0.95    0.93
 -12   6   4    9.01    0.83
   6 -12   4   10.34    1.24
  -6  -6   4    8.76    0.97
  12  -6   4    9.30    0.90
   6   6  -4    8.92    1.30
  12  -6  -4    8.82    0.81
  -6  -6  -4    9.27    1.00
  -6  12  -4   11.50    1.36
   6   6  -4    8.27    1.35
 -12   6  -4    7.85    0.76
  12  -6  -4    9.10    1.21
  -6  -6  -4    8.11    0.99
   6 -12  -4   10.96    1.33
   6 -12   5    1.84    1.04
  -6  -6   5    1.58    0.83
  12  -6   5    0.23    1.10
 -12   6   5   -1.14    0.72
   6   6  -5    0.92    1.11
   6 -12  -5    0.17    0.58
  12  -6  -5    1.16    1.04
  -6  12  -5    0.60    1.10
   6   6  -5    1.67    0.87
 -12   6  -5   -0.51    0.94
  12  -6  -5    1.53    0.82
  -6  -6  -5    0.68    0.87
   6 -12  -5    1.13    1.09
   6 -12   6    8.41    1.40
  -6  -6   6    8.19    1.20
  12  -6   6    7.32    1.26
 -12   6   6    7.88    1.15
   6 -12  -6    7.79    1.25
   6   6  -6    8.22    1.56
  12  -6  -6    9.03    1.42
  -6  12  -6    7.37    1.44
   6   6  -6    9.56    1.29
 -12   6  -6    7.53    1.42
  12  -6  -6    8.47    1.27
  -6  -6  -6    7.90    1.23
   6 -12  -6    9.14    1.47
   6 -12   7    0.46    1.21
  -6  -6   7    0.30    1.04
  12  -6   7    1.75    1.52
 -12   6   7    0.50    1.48
   6 -12  -7    0.14    1.25
   6   6  -7    0.82    1.32
  12  -6  -7    2.57    1.22
  -6  12  -7   -0.26    1.22
   6   6  -7    0.30    1.13
 -12   6  -7    0.35    1.00
  12  -6  -7    0.58    1.10
  -6  -6  -7    1.31    1.05
   6 -12  -7    0.56    1.24
   6 -12   8   -0.43    1.23
  -6  -6   8   -0.89    1.09
  12  -6   8    1.76    1.21
 -12   6   8    0.14    1.15
   6   6   8    0.35    1.30
   6 -12  -8    0.49    1.10
   6   6  -8    0.28    0.80
  12  -6  -8   -0.27    1.28
  -6  12  -8   -1.29    0.78
   6   6  -8   -0.51    1.17
 -12   6  -8    0.61    1.44
  12  -6  -8    0.44    1.16
  -6  -6  -8   -0.38    1.11
   6 -12  -8   -0.26    1.27
   6 -12   9    2.84    1.39
  -6  -6   9   -0.18    1.31
  12  -6   9    0.23    1.43
 -12   6   9    1.72    1.37
   6   6   9    0.11    1.60
   6 -12  -9   -0.15    1.81
   6   6  -9    0.24    1.42
  12  -6  -9    0.48    1.50
  -6  12  -9    1.37    1.44
   6   6  -9    1.23    1.39
 -12   6  -9    1.94    1.30
  12  -6  -9   -0.76    1.35
  -6  -6  -9   -0.25    1.25
   6 -12  -9    1.18    1.44
   6 -12  10    3.75    1.60
  -6  -6  10    2.78    1.53
  12  -6  10    0.57    1.70
 -12   6  10    0.36    1.69
   6   6  10    1.64    1.83
   6 -12 -10    4.26    1.67
   6   6 -10    2.29    1.55
  12  -6 -10    1.17    1.76
  -6  12 -10    1.74    1.64
   6   6 -10    1.11    1.01
 -12   6 -10    4.05    1.56
  12  -6 -10    2.68    1.54
  -6  -6 -10    0.55    1.49
   6 -12 -10    2.78    1.64
   6 -12  11    0.40    1.74
  -6  -6  11    1.59    1.61
  12  -6  11    2.08    1.84
 -12   6  11    1.82    2.42
   6   6  11    0.61    1.23
   6 -12 -11    1.70    1.87
   6   6 -11    1.46    1.63
  12  -6 -11    3.43    1.96
  -6  12 -11   -2.65    1.74
   6   6 -11    0.84    1.75
 -12   6 -11    2.20    1.66
  12  -6 -11    2.99    1.66
  -6  -6 -11   -0.06    1.60
   6 -12 -11    0.65    1.05
   6 -12  12    1.45    1.17
  -6  -6  12    1.87    1.75
  12  -6  12    1.27    2.06
 -12   6  12    4.06    2.03
   6   6  12    0.01    2.18
   6 -12 -12    2.96    2.14
   6   6 -12    1.41    1.80
  12  -6 -12    2.23    1.36
  -6  12 -12    1.28    1.18
   6   6 -12    1.91    1.96
 -12   6 -12    2.72    1.87
  12  -6 -12   -1.30    1.83
  -6  -6 -12   -0.17    1.73
   6 -12 -12   -0.26    1.84
  -7   0   0   37.84    1.54
  -7   7   0   36.59    1.15
   0  -7   0   36.39    1.38
   7  -7   0   35.77    1.16
  -7   7   1    1.49    0.47
  -7   0   1    2.38    0.74
   0  -7   1    1.94    0.67
   7  -7   1    1.05    0.53
   7   0  -1    2.34    0.78
  -7   0  -1    1.12    0.75
   0  -7  -1    3.02    0.67
   0   7  -1    1.99    0.74
  -7   7  -1    2.12    0.57
   7  -7  -1    1.38    0.52
  -7   0  -1    1.27    0.32
  -7   7   2   67.03    1.81
  -7   0   2   64.66    1.73
   0  -7   2   68.67    2.21
   7  -7   2   64.19    1.87
  -7   0   2   66.89    1.69
   7   0   2   61.58    1.58
   0   7  -2   69.77    1.82
   7   0  -2   67.71    2.35
   7  -7  -2   66.79    1.79
   0   7  -2   70.03    2.28
  -7   7  -2   69.74    2.05
   7   0  -2   63.36    1.50
  -7   0  -2   68.27    1.66
   7  -7  -2   66.94    1.96
   0  -7  -2   69.11    2.21
  -7   0   3    0.89    0.77
   0  -7   3    1.40    0.67
   7  -7   3    0.53    0.56
  -7   0   3    0.80    0.40
   7   0   3    0.27    0.40
   7   0  -3    1.20    0.75
   7  -7  -3    0.72    0.52
   0   7  -3    0.86    0.69
  -7   7  -3    1.25    0.58
   7   0  -3    0.44    0.36
  -7   0  -3    0.62    0.58
   7  -7  -3    1.66    0.57
   0  -7  -3    1.08    0.74
   0  -7   4   19.47    1.19
   7  -7   4   19.30    1.06
  -7   0   4   17.13    1.20
   7   0   4   16.18    0.96
   7  -7  -4   20.19    1.00
   7   0  -4   18.77    1.22
   0   7  -4   20.20    1.24
  -7   7  -4   21.40    1.09
   7   0  -4   17.35    1.12
  -7   0  -4   18.71    0.97
   7  -7  -4   17.92    1.09
   0  -7  -4   20.95    0.87
   0  -7   5    0.96    0.81
   7  -7   5    1.01    0.75
  -7   0   5    1.85    0.67
   7   0   5    2.41    0.69
  -7   7   5    0.96    0.80
   0   7   5    2.08    0.54
   7  -7  -5    1.45    0.95
   7   0  -5    1.25    0.84
   0   7  -5    1.53    0.81
  -7   7  -5    1.33    0.76
   7   0  -5    0.62    0.63
  -7   0  -5    2.71    0.71
   7  -7  -5    1.70    0.76
   0  -7  -5    1.15    0.83
   0  -7   6   15.35    0.92
   7  -7   6   16.87    1.31
  -7   0   6   12.45    1.66
   7   0   6   13.89    1.28
  -7   7   6   15.79    1.48
   0   7   6   15.17    1.47
   7  -7  -6   17.14    1.30
   7   0  -6   15.71    1.41
   0   7  -6   17.51    0.94
  -7   7  -6   16.42    1.31
   7   0  -6   15.68    1.56
  -7   0  -6   14.81    1.29
   7  -7  -6   15.32    1.31
   0  -7  -6   17.73    1.45
   0  -7   7   -0.19    1.03
   7  -7   7    0.35    1.00
  -7   0   7   -0.14    0.98
   7   0   7    3.57    1.35
  -7   7   7    1.38    1.09
   0   7   7   -0.09    1.04
   7  -7  -7    0.33    1.03
   7   0  -7    0.58    1.07
   0   7  -7    1.67    1.01
  -7   7  -7    2.07    1.00
   7   0  -7    1.17    0.91
  -7   0  -7    0.31    0.95
   7  -7  -7    1.07    0.99
   0  -7  -7    0.84    0.67
   0  -7   8   -0.18    1.05
   7  -7   8   -1.26    1.02
  -7   0   8   -1.04    1.00
   7   0   8    0.04    1.04
  -7   7   8   -0.79    1.11
   0   7   8   -0.22    1.13
   7  -7  -8   -0.36    1.09
   7   0  -8    0.70    1.11
   0   7  -8    0.17    0.63
  -7   7  -8   -0.35    0.64
   7   0  -8    0.25    0.96
  -7   0  -8    0.24    0.99
   7  -7  -8    1.11    1.02
   0  -7  -8   -0.09    0.67
   0  -7   9    1.14    1.28
   7  -7   9   -0.26    1.27
  -7   0   9    2.02    1.25
   7   0   9    0.39    1.32
  -7   7   9    1.45    1.34
   0   7   9    2.67    0.83
   7  -7  -9    2.10    1.37
   7   0  -9    1.38    1.32
   0   7  -9    1.66    1.20
  -7   7  -9   -1.28    1.24
   7   0  -9    2.97    1.19
  -7   0  -9   -0.61    1.24
   7  -7  -9   -1.03    1.21
   0  -7  -9    2.49    1.30
   0  -7  10    3.86    1.02
   7  -7  10    2.13    1.55
  -7   0  10    3.17    1.62
   7   0  10    4.60    1.65
  -7   7  10    4.67    1.08
   0   7  10    3.83    1.67
   7   0 -10    4.60    1.70
   7  -7 -10    5.01    1.76
   0   7 -10    5.82    1.51
  -7   7 -10    6.28    1.57
   7   0 -10    5.96    1.50
  -7   0 -10    4.75    1.54
   7  -7 -10    4.04    0.99
   0  -7 -10    3.90    1.59
   0  -7  11   -0.09    1.46
   7  -7  11   -1.69    1.42
  -7   0  11    0.72    1.46
   7   0  11    1.09    1.49
  -7   7  11    1.30    0.95
   0   7  11    0.49    1.54
   7   0 -11   -0.60    1.61
   7  -7 -11   -0.18    1.66
   0   7 -11    1.46    1.39
  -7   7 -11   -1.04    1.44
   7   0 -11    0.23    1.38
  -7   0 -11   -0.94    1.41
   7  -7 -11    0.59    1.38
   0  -7 -11   -0.40    1.44
   0  -7  12    1.79    1.74
   7  -7  12    1.11    1.71
  -7   0  12    2.39    1.75
   7   0  12    2.75    1.75
  -7   7  12    1.88    1.15
   0   7  12   -1.35    1.80
   7  -7 -12   -1.25    2.03
   7   0 -12    5.61    1.93
  -7   7 -12    1.56    1.67
   0   7 -12    0.27    1.65
   7   0 -12    3.36    1.61
  -7   0 -12    0.68    1.64
   7  -7 -12    3.07    1.64
   0  -7 -12    1.55    1.72
   0  -7  13   -1.92    1.73
   7  -7  13   -0.91    1.73
  -7   0  13   -1.74    1.76
   7   0  13    1.48    1.78
  -7   7  13   -1.44    1.89
   0   7  13   -2.73    1.87
   7   0 -13    0.57    2.01
   7  -7 -13   -0.79    2.07
   0   7 -13    0.30    1.63
  -7   7 -13   -0.05    1.72
   7   0 -13    0.88    1.64
  -7   0 -13    0.46    1.64
   7  -7 -13    0.26    1.66
   0  -7 -13   -1.17    1.74
  -1  -7   0   66.27    1.53
  -7  -1   0   61.62    2.11
  -8   1   0   63.07    2.22
  -8   7   0   61.84    1.83
  -7   8   0   61.62    1.54
   1  -8   0   60.84    2.06
  -1  -7   0   58.94    1.90
   7  -8   0   61.34    1.82
  -7  -1   0   66.07    1.24
  -7  -1   0   66.56    1.39
  -8   1   1   92.55    2.93
  -7   8   1   92.47    2.18
  -7  -1   1   92.00    2.86
  -8   7   1   93.79    2.54
   1  -8   1   89.71    2.76
   7  -8   1   90.65    2.55
  -1  -7   1   88.73    2.64
   8  -7   1   91.03    2.27
  -7  -1   1   99.05    1.99
  -1   8  -1   92.80    1.98
  -1  -7  -1   93.26    2.01
   1   7  -1   96.00    2.45
  -7  -1  -1   93.87    2.87
   7   1  -1   94.05    3.00
  -8   1  -1   94.73    2.97
   8  -1  -1   94.89    3.07
  -8   7  -1   91.54    2.62
   1   7  -1   97.26    2.92
  -1  -7  -1   90.11    2.63
  -1   8  -1   93.81    2.36
   1  -8  -1   91.71    2.80
  -7   8  -1  100.06    3.25
  -8   7  -1  101.48    2.90
   7  -8  -1   90.15    2.53
   8  -7  -1   91.43    2.28
  -7  -1  -1   89.07    1.96
  -7   8   2   31.85    0.96
  -7  -1   2   31.08    1.44
  -8   1   2   32.53    1.53
  -8   7   2   31.51    1.47
   1  -8   2   29.55    1.39
   7  -8   2   30.54    1.21
  -1  -7   2   31.38    1.33
   8  -7   2   29.72    1.31
  -7  -1   2   30.82    0.98
  -8   1   2   32.69    0.85
   8  -1   2   30.81    0.84
  -1   8  -2   33.40    1.26
   1   7  -2   30.68    1.07
   7   1  -2   30.83    1.47
   8  -1  -2   30.73    1.06
   8  -7  -2   30.74    1.44
   7  -8  -2   30.11    0.92
  -1  -7  -2   29.35    0.87
  -8   1  -2   32.81    1.06
  -7  -1  -2   32.10    1.45
  -7   8  -2   33.09    1.29
  -1   8  -2   31.90    1.47
   1   7  -2   31.71    1.39
  -8   7  -2   33.03    1.16
   7   1  -2   31.41    0.94
   8  -1  -2   31.41    0.74
  -8   1  -2   32.42    0.82
  -7  -1  -2   32.86    1.04
   8  -7  -2   30.10    1.07
   7  -8  -2   29.68    1.22
  -1  -7  -2   30.58    1.35
   1  -8  -2   30.58    1.00
  -8   7   3   13.84    0.85
  -7  -1   3   14.43    0.73
  -8   1   3   15.41    1.15
   1  -8   3   14.34    1.04
   7  -8   3   14.30    0.91
  -1  -7   3   14.17    0.99
   8  -7   3   13.48    1.06
  -7  -1   3   13.96    0.68
  -8   1   3   13.78    0.81
   8  -1   3   13.44    0.81
   7   1   3   14.13    0.89
   1   7  -3   15.15    0.90
   8  -1  -3   13.59    1.13
   7   1  -3   13.87    0.71
   8  -7  -3   14.71    1.18
   7  -8  -3   15.35    0.74
   1   7  -3   15.00    1.04
  -1   8  -3   14.32    1.09
  -7   8  -3   15.18    0.95
  -8   7  -3   15.39    0.85
   7   1  -3   13.99    0.81
   8  -1  -3   14.11    0.73
  -8   1  -3   13.94    0.80
  -7  -1  -3   15.74    0.91
   8  -7  -3   14.22    0.82
   7  -8  -3   13.86    0.91
  -1  -7  -3   15.36    1.08
   1  -8  -3   16.24    1.16
  -8   1   4   19.68    0.86
  -1  -7   4   19.53    1.18
   1  -8   4   19.92    1.25
   7  -8   4   18.34    1.11
   8  -7   4   18.89    1.03
  -7  -1   4   16.94    0.95
  -8   1   4   17.88    1.18
   8  -1   4   18.37    0.96
   7   1   4   17.75    1.00
   1   7  -4   18.70    1.16
   8  -7  -4   19.83    1.08
   8  -1  -4   18.38    1.25
   7  -8  -4   18.05    0.96
   7   1  -4   18.59    1.25
   1   7  -4   19.51    1.22
  -7   8  -4   19.15    1.15
  -1   8  -4   18.91    1.25
  -8   7  -4   19.20    1.07
   7   1  -4   18.95    1.14
   8  -1  -4   19.03    1.11
  -8   1  -4   19.78    1.16
  -7  -1  -4   18.43    1.23
   8  -7  -4   18.09    1.05
   7  -8  -4   19.08    1.12
  -1  -7  -4   19.39    1.24
   1  -8  -4   21.26    1.33
   1  -8   5   51.26    2.21
  -1  -7   5   52.33    2.12
   7  -8   5   51.18    2.09
   8  -7   5   48.46    2.04
  -7  -1   5   46.52    2.03
  -8   1   5   46.77    2.05
   8  -1   5   49.27    2.09
   7   1   5   47.49    2.16
  -8   7   5   50.35    2.19
  -7   8   5   56.65    1.76
   7  -8  -5   50.70    2.05
   7   1  -5   51.44    2.23
   8  -7  -5   51.48    2.10
   8  -1  -5   51.30    2.19
   1   7  -5   55.33    2.22
  -7   8  -5   51.99    2.14
  -1   8  -5   54.44    2.26
  -8   7  -5   52.30    2.15
   7   1  -5   52.01    2.40
   8  -1  -5   52.37    1.94
  -8   1  -5   48.52    2.47
  -7  -1  -5   47.83    2.10
   8  -7  -5   50.74    2.08
  -1  -7  -5   54.05    2.27
   7  -8  -5   51.91    2.11
   1  -8  -5   55.63    1.72
  -1  -7   6   19.34    0.98
   1  -8   6   18.89    1.51
   7  -8   6   16.67    1.43
   8  -7   6   16.69    1.38
  -7  -1   6   18.21    1.39
  -8   1   6   20.11    1.39
   8  -1   6   18.21    1.47
   7   1   6   18.85    1.44
  -8   7   6   18.17    1.56
  -7   8   6   17.84    1.55
   1   7   6   18.29    1.51
  -1   8   6   18.87    1.06
   7  -8  -6   19.99    1.40
   8  -7  -6   20.51    1.44
   8  -1  -6   18.71    1.52
   7   1  -6   19.27    1.05
  -1   8  -6   20.29    1.51
   1   7  -6   22.02    1.52
  -7   8  -6   20.12    1.48
  -8   7  -6   19.11    1.41
   7   1  -6   19.23    1.32
   8  -1  -6   18.64    1.32
  -8   1  -6   18.64    1.36
  -7  -1  -6   19.68    1.42
   8  -7  -6   17.71    1.38
   7  -8  -6   18.78    1.45
  -1  -7  -6   19.13    1.54
   1  -8  -6   20.84    1.57
  -1  -7   7   29.53    1.96
   1  -8   7   29.90    2.05
   7  -8   7   30.33    1.36
   8  -7   7   23.75    1.94
  -7  -1   7   26.44    1.92
  -8   1   7   27.85    1.98
   8  -1   7   28.10    2.07
   7   1   7   24.76    2.02
  -8   7   7   25.76    2.19
   1   7   7   30.53    1.47
  -7   8   7   29.61    2.14
  -1   8   7   30.62    2.17
   7  -8  -7   27.11    2.04
   7   1  -7   30.08    2.04
   8  -7  -7   30.02    2.07
   8  -1  -7   34.05    2.11
   1   7  -7   33.15    2.02
  -1   8  -7   30.25    2.04
  -7   8  -7   30.48    1.98
  -8   7  -7   29.08    1.98
   7   1  -7   29.47    1.88
   8  -1  -7   29.07    1.90
  -8   1  -7   27.21    1.96
  -7  -1  -7   30.41    1.95
   8  -7  -7   28.25    1.92
   7  -8  -7   30.58    2.01
  -1  -7  -7   28.96    1.43
   1  -8  -7   30.29    2.10
  -1  -7   8    3.24    1.21
   1  -8   8    3.83    1.25
   7  -8   8    2.93    1.21
   8  -7   8    2.80    1.20
  -7  -1   8    3.66    1.18
  -8   1   8    1.57    1.21
   8  -1   8    4.03    1.24
   7   1   8    2.14    1.25
  -8   7   8    2.94    1.29
  -7   8   8    2.98    1.36
   1   7   8    2.89    1.27
  -1   8   8    3.39    1.28
   7  -8  -8    3.55    1.27
   8  -1  -8    4.18    1.29
   8  -7  -8    4.10    1.27
   7   1  -8    3.00    0.79
  -1   8  -8    2.27    1.27
   1   7  -8    4.91    1.18
  -7   8  -8    2.77    1.23
  -8   7  -8    4.78    1.22
   7   1  -8    3.09    1.12
   8  -1  -8    3.94    1.13
  -8   1  -8    4.92    1.14
  -7  -1  -8    3.10    1.18
   8  -7  -8    3.01    1.14
   7  -8  -8    3.00    1.21
  -1  -7  -8    2.66    0.79
   1  -8  -8    3.48    1.30
  -1  -7   9   10.25    1.69
   1  -8   9   12.15    1.73
   7  -8   9    9.71    1.70
   8  -7   9   12.75    1.70
  -7  -1   9   12.16    1.69
  -8   1   9   11.23    1.76
   8  -1   9   11.07    1.78
   7   1   9   11.83    1.79
  -8   7   9   11.24    1.79
  -7   8   9   11.48    1.88
   1   7   9   10.61    1.83
  -1   8   9    9.47    1.74
   7  -8  -9   13.74    1.87
   8  -7  -9   11.05    1.89
   7   1  -9    9.51    1.78
   8  -1  -9   11.75    1.84
   1   7  -9   12.98    1.09
  -7   8  -9   11.69    1.69
  -1   8  -9   10.61    1.71
  -8   7  -9    9.61    1.71
   7   1  -9   10.26    1.65
   8  -1  -9   12.50    1.65
  -8   1  -9   10.28    1.65
  -7  -1  -9   11.43    1.66
   8  -7  -9    8.72    1.65
   7  -8  -9    9.52    1.64
  -1  -7  -9   12.22    1.76
   1  -8  -9   12.83    1.79
   1  -8  10    8.34    1.83
  -1  -7  10    9.39    1.14
   7  -8  10    8.95    1.79
   8  -7  10    8.18    1.74
  -7  -1  10    7.07    1.75
  -8   1  10   10.50    1.84
   8  -1  10    8.28    1.82
   7   1  10    9.37    1.85
  -8   7  10    5.84    1.89
  -7   8  10    7.46    1.98
   1   7  10    8.30    1.86
  -1   8  10    7.03    1.90
   8  -7 -10    9.85    2.07
   7  -8 -10   10.67    1.99
   7   1 -10    8.71    1.87
   8  -1 -10    8.25    1.23
   1   7 -10    8.37    1.70
  -1   8 -10    7.42    1.74
  -8   7 -10   11.75    1.77
  -7   8 -10    9.70    1.81
   7   1 -10    9.04    1.72
   8  -1 -10   12.17    1.72
  -8   1 -10    9.73    1.76
  -7  -1 -10    6.97    1.74
   8  -7 -10    8.42    1.70
  -1  -7 -10    9.79    1.77
   7  -8 -10    7.23    1.69
   1  -8 -10    8.03    1.82
   1  -8  11    5.92    1.85
  -1  -7  11    7.75    1.82
   7  -8  11    5.80    1.83
   8  -7  11    5.53    1.77
  -7  -1  11    3.68    1.82
  -8   1  11    6.31    1.89
   8  -1  11    5.34    1.93
   7   1  11    7.95    1.90
  -8   7  11    7.11    1.26
   1   7  11    6.00    1.25
  -1   8  11    5.79    1.92
  -7   8  11    5.45    2.02
   7   1 -11    5.18    1.97
   7  -8 -11    6.84    2.12
   8  -7 -11    7.85    2.18
   8  -1 -11    6.04    2.00
   1   7 -11    4.09    1.74
  -1   8 -11    6.38    1.13
  -8   7 -11    6.89    1.82
  -7   8 -11    6.21    1.84
   7   1 -11    7.41    1.74
   8  -1 -11    5.07    1.80
  -8   1 -11    9.11    1.74
  -7  -1 -11    5.97    1.78
   8  -7 -11    5.98    1.13
   7  -8 -11    6.62    1.14
  -1  -7 -11    7.24    1.82
   1  -8 -11    7.18    1.79
  -1  -7  12    2.57    1.82
   1  -8  12    2.42    1.89
   7  -8  12    3.29    1.11
   8  -7  12    3.08    1.83
  -7  -1  12    6.41    1.84
  -8   1  12    2.84    1.91
   8  -1  12    2.29    1.91
   7   1  12    4.38    1.93
  -8   7  12    3.27    1.24
   1   7  12    3.23    1.24
  -7   8  12    2.90    2.08
  -1   8  12    3.80    1.98
   8  -7 -12    1.53    2.26
   7  -8 -12    1.52    2.17
   7   1 -12    3.63    2.06
   8  -1 -12    6.14    2.06
  -1   8 -12    3.13    1.10
   1   7 -12    2.83    1.74
  -8   7 -12   -0.48    1.85
  -7   8 -12    2.46    1.84
   7   1 -12    4.98    1.78
   8  -1 -12    6.66    1.12
  -8   1 -12    5.39    1.78
  -7  -1 -12    2.94    1.75
   8  -7 -12    4.54    1.72
   7  -8 -12    4.19    1.76
  -1  -7 -12    2.81    1.82
   1  -8 -12    3.57    1.90
  -1  -7  13   -0.99    1.77
   1  -8  13    0.90    1.79
   7  -8  13    0.72    1.81
   8  -7  13    2.38    1.79
  -7  -1  13   -0.36    1.81
  -8   1  13    2.26    1.81
   8  -1  13    0.19    1.86
   7   1  13    0.75    1.91
  -8   7  13   -0.59    1.91
   1   7  13    2.15    1.19
  -1   8  13    0.07    1.97
  -7   8  13    4.35    1.98
   8  -7 -13    0.20    2.24
   7  -8 -13   -0.13    2.15
   7   1 -13    1.90    2.00
   8  -1 -13   -0.83    2.06
   1   7 -13    2.23    1.69
  -1   8 -13    1.73    1.06
  -8   7 -13   -1.03    1.78
  -7   8 -13   -0.26    1.79
   7   1 -13    1.42    1.75
   8  -1 -13   -0.66    1.76
  -8   1 -13   -0.31    1.70
  -7  -1 -13   -0.15    1.71
   8  -7 -13   -1.39    1.69
  -1  -7 -13    1.00    1.79
   1  -8 -13   -0.33    1.78
   7  -8 -13   -0.24    1.73
  -2  -7   0   28.02    0.96
  -7  -2   0   28.01    1.30
  -9   2   0   29.15    1.43
  -9   7   0   27.81    1.19
  -7   9   0   25.95    0.97
   7  -9   0   27.74    1.18
   2  -9   0   28.77    1.34
  -2  -7   0   27.40    1.14
   9  -7   0   26.28    0.81
  -7  -2   0   28.93    0.78
  -7   9   1   23.97    0.84
  -7  -2   1   24.11    1.20
  -9   2   1   24.62    1.36
  -9   7   1   24.57    1.09
   2  -9   1   25.17    1.27
  -2  -7   1   23.75    1.06
   7  -9   1   25.74    1.11
   9  -7   1   22.96    0.80
  -7  -2   1   24.50    0.77
  -2  -7  -1   23.17    0.66
   2   7  -1   22.17    1.06
  -7  -2  -1   24.14    1.22
   7   2  -1   23.78    1.27
  -9   2  -1   22.95    0.92
  -9   7  -1   23.52    1.16
   9  -2  -1   26.43    1.41
  -9   7  -1   24.65    0.82
   2   7  -1   25.96    1.19
  -2   9  -1   27.19    1.39
  -7   9  -1   26.81    1.21
   7  -9  -1   23.96    1.10
  -2  -7  -1   24.38    1.09
  -7  -2  -1   21.90    0.71
   9  -7  -1   23.03    0.78
   2  -9  -1   25.21    1.27
  -7  -2  -1   24.67    0.83
   9  -7  -1   22.48    0.79
  -7   9   2    9.11    0.51
  -9   7   2   10.46    0.80
  -7  -2   2    8.45    0.94
  -9   2   2    8.41    1.01
   2  -9   2    9.45    0.97
  -2  -7   2    9.69    0.84
   7  -9   2    9.08    0.85
   9  -7   2    8.17    0.61
  -7  -2   2    7.68    0.49
   2   7  -2    7.38    0.69
   7   2  -2    9.18    1.00
   9  -7  -2    9.17    0.79
   9  -2  -2    9.25    1.04
  -2  -7  -2    8.91    0.60
   7  -9  -2    8.15    0.61
  -7  -2  -2    9.41    0.59
  -9   2  -2    9.90    1.08
   7  -9  -2    8.19    0.54
   2  -9  -2    9.58    0.97
  -7   9  -2    9.25    0.91
   2   7  -2   10.48    0.89
  -2   9  -2    8.53    1.04
  -9   7  -2    8.80    0.87
   7   2  -2    8.21    0.49
  -7  -2  -2    8.84    0.52
   9  -7  -2    7.87    0.58
  -2  -7  -2    9.82    0.88
   7  -9  -2   10.41    0.87
  -9   7   3   12.33    0.87
  -7  -2   3    9.55    1.03
  -9   2   3   11.13    0.69
   2  -9   3   11.95    1.01
   7  -9   3   10.77    0.91
  -2  -7   3   10.86    0.92
   9  -7   3    9.85    0.73
  -7  -2   3    9.15    0.64
   9  -2   3    8.04    0.72
   2   7  -3    9.83    0.87
   7   2  -3   10.17    1.06
   9  -2  -3    9.93    1.08
   7  -9  -3   10.56    0.59
   9  -7  -3   12.08    0.91
  -7   9  -3   11.89    0.96
  -2   9  -3   10.91    1.07
   2   7  -3   11.69    0.94
  -9   7  -3   10.08    0.77
   7   2  -3   10.11    0.63
  -9   2  -3    9.90    0.65
   9  -2  -3    8.62    0.65
  -7  -2  -3   10.25    0.66
   9  -7  -3    9.82    0.72
  -2  -7  -3   10.89    0.97
   7  -9  -3   10.77    0.95
   2  -9  -3   12.46    1.15
  -9   2   4    8.52    1.08
   2  -9   4    8.90    1.01
  -2  -7   4    8.99    0.93
   7  -9   4    7.90    0.92
   9  -7   4    6.58    0.78
  -7  -2   4    6.71    0.97
   9  -2   4    6.26    0.98
  -9   2   4    6.79    0.66
   7   2   4    6.39    1.05
   2   7  -4    7.91    1.29
   7   2  -4    8.21    0.67
   7  -9  -4    8.43    0.89
   9  -2  -4    7.60    0.69
   9  -7  -4   10.02    0.92
  -2   9  -4    9.08    1.06
   2   7  -4    8.27    0.95
  -7   9  -4    7.88    0.97
  -9   7  -4    7.52    0.80
   7   2  -4    8.46    0.94
  -9   2  -4    6.84    0.86
   9  -2  -4    6.93    0.85
  -7  -2  -4    7.06    0.78
   9  -7  -4    7.72    0.80
  -2  -7  -4    9.15    0.98
   7  -9  -4    7.70    0.94
   2  -9  -4    9.45    1.11
   2  -9   5   15.64    1.33
  -2  -7   5   15.05    1.22
   7  -9   5   13.33    1.24
   9  -7   5   11.75    1.14
  -7  -2   5   13.66    1.43
  -9   2   5   13.29    1.42
   9  -2   5   13.20    1.48
   7   2   5   12.28    1.22
  -9   7   5   12.85    1.24
   2   7  -5   13.87    1.34
   7   2  -5   14.43    1.33
   7  -9  -5   15.49    1.06
   9  -7  -5   14.31    1.21
   9  -2  -5   14.62    0.89
   2   7  -5   16.42    1.27
  -2   9  -5   18.10    1.36
  -7   9  -5   16.46    1.28
  -9   7  -5   15.96    1.51
   7   2  -5   13.92    1.07
  -9   2  -5   13.73    1.04
   9  -2  -5   13.60    1.03
  -7  -2  -5   15.01    1.11
   9  -7  -5   14.89    1.12
  -2  -7  -5   14.38    1.30
   7  -9  -5   15.51    1.25
   2  -9  -5   17.45    1.42
   2  -9   6    3.09    1.04
  -2  -7   6    2.00    0.97
   7  -9   6    0.48    0.98
   9  -7   6    1.74    0.92
  -7  -2   6    1.37    0.91
   9  -2   6    3.11    0.94
  -9   2   6    2.33    1.27
   7   2   6    1.77    1.31
  -9   7   6    1.89    1.03
   2   7   6    2.41    0.66
   2   7  -6    1.78    1.00
   7   2  -6    1.57    1.08
   7  -9  -6    1.33    0.89
   9  -2  -6    3.75    1.04
   9  -7  -6    2.02    0.96
  -2   9  -6    2.23    1.08
   2   7  -6    2.22    0.98
  -7   9  -6    0.54    1.00
  -9   7  -6    1.54    0.93
   7   2  -6    1.84    0.87
   9  -2  -6    3.27    0.85
  -9   2  -6    2.49    0.85
   9  -7  -6    2.68    0.92
  -2  -7  -6    0.96    1.05
   7  -9  -6    3.11    1.02
   2  -9  -6    3.10    1.12
   2  -9   7    3.25    1.31
  -2  -7   7    3.93    1.23
   7  -9   7    5.26    1.23
   9  -7   7    5.12    1.20
  -9   2   7    4.66    1.65
   9  -2   7    7.13    1.24
   7   2   7    5.20    1.27
  -9   7   7    4.93    1.32
   2   7   7    6.32    1.34
  -7   9   7    5.00    1.39
  -2   9   7    5.05    0.83
   2   7  -7    4.70    0.74
   7  -9  -7    4.47    1.21
   7   2  -7    6.06    1.32
   9  -7  -7    6.11    1.30
   9  -2  -7    5.93    1.29
  -2   9  -7    7.74    1.27
  -7   9  -7    6.73    1.30
   2   7  -7    5.26    1.26
  -9   7  -7    3.77    1.20
   7   2  -7    4.24    1.17
  -9   2  -7    4.44    1.17
   9  -2  -7    6.02    1.15
  -7  -2  -7    3.35    1.22
   9  -7  -7    5.39    1.18
  -2  -7  -7    5.44    0.83
   7  -9  -7    5.19    0.79
   2  -9  -7    5.25    0.88
   2  -9   8    3.35    1.25
  -2  -7   8    1.72    1.15
   7  -9   8    1.56    1.16
   9  -7   8    2.21    1.17
  -7  -2   8    2.39    1.11
   9  -2   8    0.54    1.21
  -9   2   8    2.07    1.18
   7   2   8    0.67    1.24
  -9   7   8    2.03    1.28
   2   7   8    0.75    1.22
  -7   9   8    0.19    0.80
  -2   9   8    2.85    1.25
   7  -9  -8    1.29    1.23
   7   2  -8    1.63    1.24
   9  -7  -8    3.80    1.27
   9  -2  -8    1.14    1.31
  -7   9  -8    1.76    1.22
  -2   9  -8    0.85    1.27
   2   7  -8    2.49    1.17
  -9   7  -8    2.31    1.16
   7   2  -8    1.70    1.10
   9  -2  -8    1.42    1.10
  -9   2  -8    2.59    1.09
  -7  -2  -8    1.99    1.13
   9  -7  -8    1.37    1.11
  -2  -7  -8    1.22    0.76
   7  -9  -8    2.01    0.72
   2  -9  -8    1.93    0.80
   2  -9   9    2.61    1.36
  -2  -7   9    1.79    1.36
   7  -9   9    2.39    1.34
   9  -7   9    1.38    1.33
  -7  -2   9    0.79    1.36
   9  -2   9    2.84    1.43
  -9   2   9    2.41    1.39
   7   2   9   -0.17    1.44
  -9   7   9    1.95    1.43
  -7   9   9    2.50    1.45
  -2   9   9    2.04    1.46
   2   7   9    3.15    1.42
   7  -9  -9    3.80    1.95
   9  -7  -9    3.16    1.49
   7   2  -9    2.08    0.85
   9  -2  -9    3.78    1.49
  -2   9  -9    2.65    0.85
  -7   9  -9    1.42    1.36
   2   7  -9    3.35    1.31
  -9   7  -9    0.79    1.34
   7   2  -9    1.99    1.31
  -9   2  -9    4.21    1.30
   9  -2  -9    3.53    1.32
  -7  -2  -9    1.94    1.32
   9  -7  -9    1.81    1.29
  -2  -7  -9    1.83    1.37
   7  -9  -9    1.15    1.31
   2  -9  -9    0.66    0.90
   2  -9  10   -0.68    1.45
  -2  -7  10    0.42    0.85
   7  -9  10    0.09    0.88
   9  -7  10   -0.53    0.85
  -7  -2  10   -2.13    1.40
  -9   2  10    4.34    1.50
   9  -2  10    3.34    1.51
   7   2  10    1.95    1.52
  -9   7  10    2.38    1.50
   2   7  10   -0.70    1.50
  -7   9  10   -1.11    1.60
  -2   9  10    0.36    0.90
   7  -9 -10   -0.45    1.57
   9  -7 -10    1.53    1.58
   7   2 -10    0.75    1.42
   9  -2 -10    0.55    1.54
  -2   9 -10    1.23    1.44
   2   7 -10    0.13    1.35
  -7   9 -10    0.38    1.38
  -9   7 -10   -0.03    1.39
   7   2 -10    0.40    1.37
  -9   2 -10    4.32    1.38
   9  -2 -10    2.11    1.37
  -7  -2 -10   -2.08    1.36
   9  -7 -10    0.92    1.33
  -2  -7 -10    0.22    1.37
   7  -9 -10    0.65    1.33
   2  -9 -10    0.79    1.46
   2  -9  11    1.56    1.01
   7  -9  11   -0.02    1.55
  -2  -7  11   -0.34    1.57
   9  -7  11    2.55    1.56
  -7  -2  11   -0.18    1.55
  -9   2  11    3.73    1.59
   9  -2  11    2.98    1.66
   7   2  11   -0.61    1.68
  -9   7  11   -1.83    1.71
   2   7  11    0.56    1.67
  -7   9  11    1.72    1.73
  -2   9  11    0.26    1.66
   7  -9 -11    1.62    1.78
   9  -2 -11    1.15    1.74
   7   2 -11    1.53    1.63
   9  -7 -11   -1.42    1.81
  -2   9 -11    2.52    1.54
   2   7 -11    1.85    1.53
  -7   9 -11    0.81    0.97
  -9   7 -11    1.06    1.56
   7   2 -11   -1.56    1.56
   9  -2 -11    2.60    1.54
  -9   2 -11    0.72    1.53
  -7  -2 -11    0.78    1.48
   9  -7 -11    0.37    1.48
   7  -9 -11    1.65    1.49
   2  -9 -11    2.21    1.53
   2  -9  12    0.64    1.73
   7  -9  12   -0.61    1.65
   9  -7  12   -2.40    1.64
  -7  -2  12   -0.19    1.65
   9  -2  12    1.42    1.77
  -9   2  12    0.59    1.70
   7   2  12    1.15    1.81
  -9   7  12    1.60    1.78
   2   7  12    2.66    1.75
  -7   9  12   -1.58    1.88
  -2   9  12   -0.13    1.77
   7  -9 -12    3.00    1.94
   9  -7 -12    1.07    1.23
   9  -2 -12   -3.00    1.91
   7   2 -12   -0.60    1.73
  -2   9 -12    0.37    1.65
   2   7 -12    0.56    0.99
  -7   9 -12    0.35    1.02
  -9   7 -12    1.32    1.67
   7   2 -12   -1.10    1.04
  -9   2 -12    2.68    1.62
   9  -2 -12    3.12    1.65
  -7  -2 -12    0.96    1.56
   9  -7 -12    0.17    0.96
  -2  -7 -12   -0.87    1.64
   7  -9 -12   -0.54    1.61
   2  -9 -12   -0.22    1.69
   2  -9  13    0.33    1.85
  -2  -7  13   -2.80    1.78
   7  -9  13   -0.32    1.80
   9  -7  13    2.21    1.81
  -7  -2  13    1.93    1.83
   9  -2  13    0.36    1.95
  -9   2  13    3.09    1.91
   7   2  13    0.79    2.02
  -9   7  13    0.62    1.99
   2   7  13   -0.25    2.03
  -7   9  13   -1.25    2.11
  -2   9  13   -1.57    1.96
   7  -9 -13    4.06    2.26
   9  -7 -13   -0.25    2.27
   9  -2 -13   -0.14    2.14
   7   2 -13    0.36    1.97
   2   7 -13    2.46    1.10
  -7   9 -13   -0.92    1.13
  -2   9 -13    1.07    1.77
  -9   7 -13   -1.40    1.85
   7   2 -13    1.12    1.81
  -9   2 -13    1.58    1.09
   9  -2 -13    1.63    1.10
  -7  -2 -13    3.38    1.71
   9  -7 -13    2.26    1.67
  -2  -7 -13    1.01    1.81
   7  -9 -13    1.16    1.76
   2  -9 -13    0.32    1.89
  -3  -7   0  126.23    3.48
  -7  -3   0  119.03    3.66
 -10   3   0  127.35    4.11
  -7  10   0  117.18    2.83
 -10   7   0  125.76    3.83
  -3  -7   0  117.51    3.33
   3 -10   0  121.44    3.85
  10  -7   0  122.85    3.08
  -7  -3   0  122.47    2.98
  -7  10   1    4.70    0.46
 -10   7   1    6.36    0.81
 -10   3   1    7.99    0.97
  -3  -7   1    6.62    0.72
 -10   7  -1    5.17    0.87
   7   3  -1    4.38    0.90
  10  -3  -1    7.15    1.01
  -7  10  -1    7.72    0.91
   3   7  -1    7.68    0.80
  -7  -3  -1    4.61    0.53
  10  -7  -1    5.66    0.58
  10  -7  -1    5.58    0.62
  -7  -3   2   84.90    2.99
 -10   7   2   94.76    2.98
 -10   3   2   93.28    3.23
   3 -10   2   87.08    2.39
   7 -10   2   94.71    3.03
  -3  -7   2   91.40    2.86
  10  -7   2   87.83    2.77
  -7  -3   2   92.13    2.71
   3   7  -2   88.38    2.85
  -3  -7  -2   88.29    2.24
   7   3  -2   90.41    3.27
  10  -3  -2   95.69    3.32
  -7  -3  -2   97.36    3.03
  10  -7  -2   94.00    2.98
 -10   3  -2  101.04    3.59
  -3  -7  -2   91.99    2.76
   7 -10  -2   94.04    3.06
   3 -10  -2   95.12    3.22
  -7  10  -2  100.37    3.31
   7   3  -2   93.03    2.34
   3   7  -2   99.53    3.09
  -3  10  -2  100.57    3.48
 -10   7  -2   99.01    2.67
  -7  -3  -2   96.43    2.77
  10  -7  -2   89.72    2.42
  -3  -7  -2   97.10    3.54
   7 -10  -2   92.72    3.04
  -7  -3   3    2.52    0.81
 -10   7   3    2.88    0.74
 -10   3   3    1.57    0.93
   7 -10   3    2.76    0.76
   3 -10   3    3.34    0.87
  -3  -7   3    2.56    0.71
  10  -7   3    2.42    0.54
  -7  -3   3    1.17    0.67
  10  -3   3    1.31    0.58
 -10   3   3    1.68    0.48
   3   7  -3    1.99    0.70
   7   3  -3    2.06    0.85
  10  -3  -3    1.72    0.91
   7 -10  -3    1.34    0.37
  10  -7  -3    2.25    0.78
  -3  -7  -3    1.90    0.47
  -7  -3  -3    3.55    0.81
  -7  10  -3    2.45    0.84
  -3  10  -3    1.22    0.92
   3   7  -3    2.50    0.76
 -10   7  -3    2.39    0.55
   7   3  -3    0.95    0.50
 -10   3  -3    0.79    0.45
  10  -3  -3    0.98    0.49
  -7  -3  -3    1.26    0.70
  10  -7  -3    1.54    0.53
  -3  -7  -3    2.10    0.73
   7 -10  -3    3.23    0.51
   3 -10  -3    1.47    0.91
 -10   7   4   33.18    1.57
 -10   3   4   35.44    1.88
   3 -10   4   35.08    1.77
   7 -10   4   32.67    1.67
  -3  -7   4   32.88    1.58
  10  -7   4   28.13    1.41
  -7  -3   4   27.67    1.38
  10  -3   4   27.75    1.71
   3   7  -4   29.49    1.84
   7   3  -4   31.88    1.82
   7 -10  -4   32.44    1.48
  10  -7  -4   34.65    1.70
  10  -3  -4   33.25    1.78
  -3  10  -4   36.22    1.88
  -7  10  -4   35.24    1.75
   3   7  -4   35.43    1.67
 -10   7  -4   31.36    1.45
   7   3  -4   32.61    1.39
 -10   3  -4   28.08    1.23
  10  -3  -4   29.45    1.55
  10  -7  -4   30.39    1.76
  -7  -3  -4   30.70    1.45
  -3  -7  -4   32.07    1.68
   7 -10  -4   35.45    1.71
   3 -10  -4   37.39    1.91
   3 -10   5    4.70    1.06
   7 -10   5    3.00    1.00
  -3  -7   5    2.31    0.93
  10  -7   5    2.85    0.84
  -7  -3   5    3.45    0.83
  10  -3   5    4.81    1.16
 -10   3   5    3.57    1.05
   7   3   5    2.54    0.93
 -10   7   5    4.09    0.88
   3   7  -5    3.58    1.08
   7   3  -5    4.55    1.08
   7 -10  -5    3.12    0.97
  10  -3  -5    4.45    1.08
  10  -7  -5    4.00    1.00
  -3  10  -5    3.28    1.13
  -7  10  -5    4.50    1.03
   3   7  -5    3.89    0.97
 -10   7  -5    2.48    0.84
   7   3  -5    4.54    0.83
 -10   3  -5    3.41    0.73
  10  -3  -5    5.68    1.05
  -7  -3  -5    2.45    0.86
  10  -7  -5    3.98    0.85
  -3  -7  -5    3.20    0.99
   7 -10  -5    4.18    0.99
   3 -10  -5    4.39    1.16
   7 -10   6   17.78    1.55
   3 -10   6   19.47    1.69
  -3  -7   6   16.60    1.52
  10  -7   6   15.12    1.51
  -7  -3   6   14.80    1.45
  10  -3   6   15.03    1.99
 -10   3   6   13.66    1.45
   7   3   6   16.83    1.69
 -10   7   6   16.36    1.59
   3   7  -6   16.79    1.73
   7 -10  -6   17.00    1.82
   7   3  -6   17.31    1.68
  10  -7  -6   18.92    1.63
  10  -3  -6   19.23    1.65
  -7  10  -6   21.90    1.63
  -3  10  -6   21.03    1.14
   3   7  -6   19.48    1.58
 -10   7  -6   15.90    1.46
   7   3  -6   17.79    1.46
 -10   3  -6   16.46    1.78
  10  -3  -6   16.21    1.87
  -7  -3  -6   16.79    1.45
  10  -7  -6   16.53    1.45
  -3  -7  -6   19.36    1.09
   7 -10  -6   18.68    1.60
   3 -10  -6   19.80    1.72
   3 -10   7    4.00    1.21
   7 -10   7    3.06    1.15
  -3  -7   7    3.38    1.11
  10  -7   7    2.48    1.12
  -7  -3   7    2.47    1.09
  10  -3   7    3.72    1.16
 -10   3   7    2.12    1.09
 -10   7   7    1.39    1.22
   7   3   7    1.43    1.26
   3   7   7    2.67    1.20
   3   7  -7    1.98    1.21
   7 -10  -7    0.07    1.46
   7   3  -7    0.74    1.23
  10  -7  -7    1.20    1.18
  10  -3  -7    2.25    1.21
  -7  10  -7    1.80    0.74
   3   7  -7    2.90    1.11
  -3  10  -7    2.89    1.24
 -10   7  -7    1.82    1.07
   7   3  -7    1.90    1.06
 -10   3  -7    5.07    1.39
  10  -3  -7    6.15    1.46
  10  -7  -7    2.16    1.04
  -7  -3  -7    1.49    1.09
  -3  -7  -7    1.90    1.17
   7 -10  -7    3.22    1.17
   3 -10  -7    0.91    1.32
   3 -10   8    2.22    0.78
   7 -10   8    1.82    1.19
  -3  -7   8    1.12    1.13
  -7  -3   8   -0.89    1.14
  10  -7   8    1.05    1.16
  10  -3   8    1.33    1.21
 -10   3   8    1.17    1.14
   7   3   8   -0.15    1.28
 -10   7   8    2.08    1.26
   3   7   8    1.23    1.26
  -7  10   8    1.51    1.26
   3   7  -8    0.61    1.14
   7 -10  -8    0.05    1.19
   7   3  -8    1.18    1.25
  10  -7  -8    2.62    1.27
  10  -3  -8    0.65    1.25
  -3  10  -8    2.20    1.24
   3   7  -8    0.88    1.18
  -7  10  -8    0.91    1.25
 -10   7  -8    0.18    1.14
   7   3  -8    1.24    1.12
 -10   3  -8    1.77    1.08
  10  -3  -8    3.49    1.14
  10  -7  -8    1.30    1.10
  -7  -3  -8    1.43    1.14
  -3  -7  -8    1.15    1.20
   7 -10  -8    1.85    1.20
   3 -10  -8    0.83    1.29
   3 -10   9    3.86    1.46
   7 -10   9    2.70    1.43
  -3  -7   9    2.80    1.37
  10  -7   9    1.43    1.39
  -7  -3   9    3.42    1.34
  10  -3   9    2.51    1.44
 -10   3   9    0.81    1.42
 -10   7   9   -0.03    1.53
   7   3   9    3.59    1.51
  -7  10   9    3.61    1.58
   3   7   9    1.48    0.92
  -3  10   9    3.16    1.43
   3   7  -9    2.60    1.30
   7 -10  -9    5.20    1.54
   7   3  -9    1.84    1.43
  10  -3  -9    4.47    1.50
  10  -7  -9    2.23    1.57
  -3  10  -9    3.93    1.43
   3   7  -9    4.10    1.40
  -7  10  -9    1.44    1.49
 -10   7  -9    1.95    1.38
   7   3  -9    4.17    1.36
 -10   3  -9    4.30    1.35
  10  -3  -9    3.48    1.43
  10  -7  -9    1.63    1.33
  -7  -3  -9    2.01    1.34
  -3  -7  -9    1.70    0.89
   7 -10  -9    2.70    1.38
   3 -10  -9    1.61    1.51
   7 -10  10    2.09    1.61
   3 -10  10    2.83    1.64
  -3  -7  10    4.02    1.57
  10  -7  10    3.41    1.54
  -7  -3  10    2.91    1.55
  10  -3  10    2.00    1.68
 -10   3  10    4.17    1.62
 -10   7  10    3.96    1.71
   7   3  10    0.77    1.74
  -7  10  10    2.57    1.73
   3   7  10    1.39    1.68
  -3  10  10    2.07    1.66
   3   7 -10    2.03    1.44
   7 -10 -10    3.94    1.81
   7   3 -10    3.59    1.58
  10  -7 -10    3.44    1.13
  10  -3 -10    3.24    1.76
  -7  10 -10    3.96    1.65
   3   7 -10    4.24    1.55
  -3  10 -10    4.42    1.67
 -10   7 -10    0.60    1.59
   7   3 -10    4.47    1.55
 -10   3 -10    4.18    1.53
  10  -3 -10    4.29    1.56
  10  -7 -10    3.09    1.52
  -7  -3 -10    2.22    1.53
  -3  -7 -10    3.68    1.54
   7 -10 -10    2.52    1.58
   3 -10 -10    5.54    1.68
   7 -10  11    1.71    1.63
   3 -10  11    0.39    1.67
  -3  -7  11    1.66    1.61
  -7  -3  11    1.80    1.61
  10  -7  11    1.02    1.59
  10  -3  11    3.31    1.75
 -10   3  11    2.69    1.70
 -10   7  11   -1.36    1.77
   7   3  11    0.90    1.76
  -7  10  11    0.98    1.10
   3   7  11   -0.57    1.73
  -3  10  11    0.24    1.73
   3   7 -11    1.42    1.52
   7 -10 -11   -2.23    2.49
   7   3 -11    1.35    1.03
  10  -7 -11    0.85    1.90
  10  -3 -11    1.95    1.14
  -7  10 -11    5.48    1.66
  -3  10 -11    0.39    1.67
   3   7 -11    0.15    1.57
 -10   7 -11    0.53    1.65
   7   3 -11    0.91    1.60
 -10   3 -11   -0.13    1.61
  10  -3 -11    4.36    1.66
  10  -7 -11   -0.48    1.53
  -7  -3 -11    0.54    0.97
  -3  -7 -11    2.65    1.58
   7 -10 -11    1.71    0.97
   3 -10 -11    3.22    1.68
   3 -10  12    0.39    1.84
   7 -10  12    0.07    1.10
  -3  -7  12    1.41    1.74
  -7  -3  12    1.77    1.72
  10  -7  12   -0.68    1.77
  10  -3  12    2.12    1.89
 -10   3  12    3.91    1.85
 -10   7  12    1.39    1.94
   7   3  12    0.17    1.20
  -7  10  12    2.24    1.20
   3   7  12    1.90    1.82
  -3  10  12    0.45    1.91
   3   7 -12    0.28    1.76
   7 -10 -12    2.13    2.79
   7   3 -12    1.97    1.14
  10  -7 -12   -0.21    2.13
  10  -3 -12   -0.21    2.08
  -7  10 -12   -0.21    1.81
  -3  10 -12    1.01    1.13
   3   7 -12    2.06    1.71
 -10   7 -12    4.96    1.77
   7   3 -12    0.65    1.78
 -10   3 -12    2.91    1.75
  10  -3 -12    0.57    1.78
  -7  -3 -12    0.40    1.63
  10  -7 -12    3.00    1.65
   7 -10 -12    0.47    1.74
  -3  -7 -12    0.55    1.71
   3 -10 -12    2.01    1.74
  -4  -7   0   22.08    0.87
  -7  -4   0   22.27    1.14
  -7  11   0   20.38    0.65
 -11   4   0   24.93    1.50
 -11   7   0   22.32    1.27
   4 -11   0   21.71    0.90
   7 -11   0   25.79    1.28
  -4  -7   0   21.47    0.98
  -7  -4   0   22.46    0.91
  11  -7   0   22.46    0.64
  -4  -7   1   27.41    1.10
  -7  11   1   31.84    0.78
  -7  -4   1   28.00    1.33
 -11   4   1   30.08    1.60
 -11   7   1   31.02    1.44
   4 -11   1   28.33    1.50
   7 -11   1   29.61    1.44
  -4  -7   1   28.90    1.16
  -7  -4   1   31.95    1.15
  11  -7   1   30.66    1.03
  -4  -7  -1   28.47    0.94
  -7  -4  -1   27.35    1.27
 -11   7  -1   29.67    1.51
 -11   4  -1   30.83    1.69
   7   4  -1   28.70    1.01
   4   7  -1   26.79    1.16
  -7  11  -1   27.70    0.92
  -4  11  -1   30.18    1.13
   4 -11  -1   31.30    1.56
  -4  -7  -1   28.77    1.14
  -7  -4  -1   27.50    0.85
   7 -11  -1   29.32    1.43
  11  -7  -1   28.43    0.92
  11  -7  -1   29.85    0.97
  -7  -4  -1   30.22    1.17
  -7  -4   2    5.33    0.86
 -11   7   2    5.24    0.86
 -11   4   2    5.80    0.64
   4 -11   2    5.87    0.61
   7 -11   2    4.42    0.89
  -4  -7   2    5.39    0.75
  -7  -4   2    5.42    0.73
  11  -7   2    5.00    0.67
  11  -4   2    4.79    0.49
   4   7  -2    5.31    0.75
  -4  -7  -2    5.72    0.55
   7   4  -2    5.15    0.94
  -7  -4  -2    5.76    0.81
 -11   4  -2    6.82    0.68
  11  -7  -2    6.47    0.91
  11  -4  -2    5.61    1.04
 -11   7  -2    6.01    0.98
  -4  -7  -2    5.81    0.70
   4   7  -2    5.35    0.79
  -7  11  -2    6.16    0.97
  -7  -4  -2    5.17    0.51
   7   4  -2    5.91    0.55
  -4  11  -2    4.70    1.08
   4 -11  -2    6.52    0.63
   7 -11  -2    5.35    0.59
  11  -7  -2    4.70    0.54
 -11   7  -2    6.18    0.66
  11  -4  -2    4.83    0.33
  11  -7  -2    5.43    0.51
  -7  -4  -2    5.19    0.75
  -4  -7  -2    5.32    0.76
   7 -11  -2    5.04    0.94
  -7  -4   3    2.61    0.85
 -11   4   3    3.68    1.00
 -11   7   3    3.74    0.84
   4 -11   3    3.30    0.96
   7 -11   3    3.41    0.54
  -4  -7   3    3.43    0.73
  -7  -4   3    3.13    0.77
  11  -7   3    3.50    0.78
  11  -4   3    2.85    0.65
   4   7  -3    3.15    0.82
   7   4  -3    4.07    0.58
  11  -4  -3    3.52    0.99
  11  -7  -3    2.04    0.88
  -4  -7  -3    2.83    0.75
  -7  -4  -3    4.54    0.83
   7 -11  -3    2.85    0.41
   4   7  -3    3.71    0.79
  -4  11  -3    3.46    1.00
  -7  11  -3    4.51    0.95
   7   4  -3    3.58    0.59
 -11   7  -3    3.77    0.57
 -11   4  -3    2.86    0.49
  11  -4  -3    2.80    0.57
  11  -7  -3    3.97    0.57
  -7  -4  -3    3.17    0.80
  -4  -7  -3    1.90    0.76
   7 -11  -3    3.55    0.96
   4 -11  -3    4.08    1.04
 -11   4   4    4.84    0.69
 -11   7   4    3.23    0.94
   4 -11   4    4.83    1.07
   7 -11   4    4.47    0.98
  -4  -7   4    4.95    0.87
  -7  -4   4    4.04    0.75
  11  -7   4    4.59    0.77
  11  -4   4    4.88    0.73
 -11   4   4    2.80    0.81
   4 -11  -4    3.58    0.46
   4   7  -4    5.23    1.02
   7   4  -4    5.36    1.10
   7 -11  -4    4.31    0.63
  11  -4  -4    5.91    1.08
  11  -7  -4    6.21    1.00
   4   7  -4    4.53    0.92
  -4  11  -4    4.67    1.13
  -7  11  -4    5.30    1.05
   7   4  -4    4.90    0.75
 -11   7  -4    4.90    0.96
 -11   4  -4    4.12    0.57
  11  -4  -4    4.57    0.85
  11  -7  -4    5.96    0.98
  -7  -4  -4    4.77    0.79
  -4  -7  -4    5.47    0.90
   4 -11  -4    5.15    1.14
   7 -11  -4    5.04    1.01
   4 -11   5   16.88    1.52
   7 -11   5   14.85    1.40
  -4  -7   5   14.02    1.28
  -7  -4   5   13.82    1.54
  11  -7   5   14.72    1.23
  11  -4   5   13.18    1.26
 -11   4   5   11.56    1.42
   4 -11  -5   13.69    1.09
   4   7  -5   16.92    1.61
   7   4  -5   16.06    1.55
   7 -11  -5   14.80    1.26
  11  -4  -5   15.24    1.49
  11  -7  -5   13.87    1.42
   4   7  -5   16.17    1.35
  -4  11  -5   17.40    1.54
  -7  11  -5   15.85    1.50
   7   4  -5   16.53    1.20
 -11   7  -5   14.26    1.15
 -11   4  -5   13.14    1.07
  11  -4  -5   14.98    1.52
  11  -7  -5   13.25    1.57
  -7  -4  -5   15.92    1.23
  -4  -7  -5   14.39    1.34
   4 -11  -5   16.80    1.02
   7 -11  -5   15.59    1.43
   4 -11   6    4.17    1.21
   7 -11   6    3.39    0.75
  -4  -7   6    3.64    1.06
  -7  -4   6    2.80    1.36
  11  -7   6    4.52    1.05
  11  -4   6    4.23    1.09
 -11   4   6    4.28    1.34
 -11   7   6    2.66    1.45
   7   4   6    4.63    1.14
   4   7  -6    6.00    1.35
   7 -11  -6    3.46    0.92
   7   4  -6    3.43    1.28
  11  -7  -6    4.24    1.21
  11  -4  -6    4.73    1.22
  -4  11  -6    4.34    1.28
   4   7  -6    3.71    1.14
  -7  11  -6    5.02    1.21
 -11   7  -6    2.43    1.01
   7   4  -6    3.04    1.08
 -11   4  -6    3.48    0.94
  11  -4  -6    4.46    1.04
  11  -7  -6    4.27    1.34
  -7  -4  -6    5.58    1.05
  -4  -7  -6    5.33    1.16
   7 -11  -6    3.96    1.19
   4 -11  -6    4.83    1.30
   4 -11   7    8.10    1.43
   7 -11   7    6.82    1.37
  -4  -7   7    7.72    1.32
  -7  -4   7    6.90    1.27
  11  -7   7    5.20    1.36
  11  -4   7    6.43    1.39
 -11   4   7    6.03    1.32
 -11   7   7    7.31    1.46
   7   4   7    8.96    1.49
   4   7  -7    6.52    1.53
   7 -11  -7    8.02    1.28
   7   4  -7    6.43    1.50
  11  -7  -7    8.65    1.43
  11  -4  -7    7.33    0.92
  -4  11  -7    7.46    0.96
  -7  11  -7    7.17    1.47
   4   7  -7    9.04    1.35
   7   4  -7    7.22    1.33
 -11   7  -7    6.75    1.67
 -11   4  -7    6.75    1.25
  11  -4  -7    5.69    1.37
  11  -7  -7    6.80    1.30
  -7  -4  -7    5.69    1.27
  -4  -7  -7    6.60    1.36
   7 -11  -7    6.66    1.42
   4 -11  -7    7.15    1.50
   4 -11   8    0.41    1.30
   7 -11   8    1.88    1.23
  -4  -7   8    0.38    1.17
  -7  -4   8    0.46    1.17
  11  -7   8    1.52    1.17
  11  -4   8    0.64    1.66
 -11   4   8    2.15    1.16
   7   4   8    1.87    1.42
 -11   7   8    2.05    1.29
   4   7   8    0.95    1.31
   4   7  -8    0.77    1.25
   7 -11  -8    0.45    1.60
   7   4  -8    0.50    0.80
  11  -7  -8    2.30    1.29
  11  -4  -8    0.75    1.30
   4   7  -8    2.03    1.17
  -4  11  -8   -0.21    1.29
  -7  11  -8    0.11    1.25
   7   4  -8   -0.04    1.17
 -11   7  -8    0.52    1.14
 -11   4  -8    0.46    1.47
  11  -4  -8    3.07    1.18
  11  -7  -8    0.62    1.15
  -7  -4  -8    2.04    1.13
  -4  -7  -8    0.33    1.17
   7 -11  -8    3.00    1.25
   4 -11  -8    2.36    1.34
   4 -11   9    4.06    1.52
   7 -11   9    4.25    1.53
  -4  -7   9    2.28    1.46
  -7  -4   9    4.20    1.44
  11  -7   9    2.69    1.51
  11  -4   9    4.03    1.62
 -11   4   9    4.78    1.51
   7   4   9    2.90    1.78
 -11   7   9    4.72    1.68
   4   7   9    2.85    1.67
   4   7  -9    4.04    1.49
   7 -11  -9    4.30    1.62
   7   4  -9    2.54    1.57
  11  -4  -9    5.67    1.03
  11  -7  -9    4.36    1.04
  -4  11  -9    4.22    1.58
  -7  11  -9    2.84    1.58
   4   7  -9    4.86    1.49
   7   4  -9    3.58    1.47
 -11   7  -9    6.23    1.48
 -11   4  -9    3.89    1.92
  11  -4  -9    4.98    1.54
  11  -7  -9    3.69    1.48
  -7  -4  -9    3.85    1.45
  -4  -7  -9    2.02    1.51
   7 -11  -9    4.37    1.52
   4 -11  -9    5.51    1.62
   4 -11  10    0.65    1.63
   7 -11  10    2.46    1.01
  -4  -7  10    2.89    1.54
  -7  -4  10    3.57    1.50
  11  -7  10    1.17    1.61
  11  -4  10    4.34    1.67
 -11   4  10    3.35    1.62
 -11   7  10    2.92    1.71
   7   4  10    4.27    1.87
   4   7  10    3.40    1.73
  -7  11  10    0.37    1.69
   4   7 -10    2.60    1.52
   7 -11 -10    4.28    1.79
   7   4 -10    1.74    1.60
  11  -7 -10    1.15    1.78
  11  -4 -10    3.19    1.72
  -4  11 -10    4.59    1.62
  -7  11 -10    2.18    1.60
   4   7 -10    3.50    1.58
   7   4 -10    3.47    1.55
 -11   7 -10    3.40    1.59
 -11   4 -10    4.40    2.05
  11  -4 -10    2.50    1.64
  11  -7 -10    2.70    1.49
  -7  -4 -10    3.78    1.50
  -4  -7 -10    2.99    1.52
   7 -11 -10    0.67    1.56
   4 -11 -10    1.21    1.65
   4 -11  11    3.07    1.76
   7 -11  11    2.65    1.71
  -4  -7  11    2.91    1.05
  -7  -4  11    2.90    1.65
  11  -7  11   -1.03    1.73
  11  -4  11    4.09    1.89
 -11   4  11    0.79    1.77
 -11   7  11    2.11    1.87
   7   4  11    4.61    2.01
   4   7  11    2.75    1.16
  -4  11  11   -0.72    1.78
  -7  11  11    1.12    1.82
   4   7 -11    2.67    1.64
   7 -11 -11    1.49    1.99
   7   4 -11    1.24    1.69
  11  -7 -11    1.53    2.01
  11  -4 -11    3.14    1.88
  -4  11 -11    1.02    1.74
  -7  11 -11    3.26    1.81
   4   7 -11    4.98    1.67
   7   4 -11    4.19    1.70
 -11   7 -11    3.39    1.69
 -11   4 -11    1.16    1.67
  11  -4 -11    1.35    1.74
  11  -7 -11    1.31    1.63
  -7  -4 -11    1.02    1.64
  -4  -7 -11    1.68    1.63
   7 -11 -11    0.75    1.68
   4 -11 -11    1.74    1.09
   4 -11  12    2.68    1.86
   7 -11  12    1.06    1.83
  -4  -7  12    0.70    1.75
  -7  -4  12    2.37    1.75
  11  -7  12    1.94    1.84
  11  -4  12    1.46    2.00
 -11   4  12    3.95    1.91
 -11   7  12    0.87    2.02
   7   4  12    3.13    2.13
   4   7  12   -0.20    2.00
  -4  11  12    0.70    1.91
  -7  11  12    1.80    1.95
   4   7 -12    0.84    1.78
   7 -11 -12    4.56    2.15
   7   4 -12    1.21    1.82
  11  -7 -12    4.34    2.24
  11  -4 -12   -0.90    2.10
  -4  11 -12    1.16    1.82
   4   7 -12    0.26    1.81
  -7  11 -12   -0.41    1.92
   7   4 -12    0.77    1.88
 -11   7 -12    1.79    1.81
 -11   4 -12    0.51    1.79
  11  -4 -12    0.47    1.83
  11  -7 -12    3.49    1.69
  -7  -4 -12   -0.98    1.68
  -4  -7 -12    1.92    1.78
   4 -11 -12    0.98    1.87
   7 -11 -12    1.49    1.76
  -5  -7   0    3.96    0.61
  -7  -5   0    4.20    0.75
 -12   5   0    5.71    1.06
 -12   7   0    4.61    0.96
   5 -12   0    7.22    0.99
   7 -12   0    4.84    0.92
  -7  -5   0    4.73    0.66
  12  -7   0    3.94    0.43
  12  -7   0    3.91    0.44
  -5  -7   1    4.83    0.70
  -7  -5   1    5.99    0.84
 -12   5   1    6.90    1.06
 -12   7   1    6.54    0.97
   5 -12   1    5.78    1.03
   7 -12   1    6.84    0.97
  -7  -5   1    7.11    0.61
  12  -7   1    6.33    0.56
  -5  -7  -1    5.83    0.60
  -7  -5  -1    6.31    0.79
 -12   5  -1    6.34    1.16
 -12   7  -1    6.89    1.05
   7   5  -1    5.82    0.91
   5   7  -1    4.28    0.75
   7 -12  -1    7.17    1.00
  -5  -7  -1    5.59    0.67
   5 -12  -1    7.16    1.06
  -7  -5  -1    4.98    0.54
  12  -7  -1    5.38    0.54
  12  -7  -1    5.62    0.53
  -7  -5  -1    5.54    0.56
  -7  -5   2    2.46    0.87
 -12   7   2    3.98    0.91
 -12   5   2    3.62    0.62
   7 -12   2    3.21    0.94
   5 -12   2    3.42    0.61
  -5  -7   2    4.43    0.71
  -7  -5   2    4.55    0.61
  12  -7   2    2.75    0.66
  12  -5   2    2.71    0.45
  -5  -7  -2    3.39    0.58
  -7  -5  -2    3.62    1.02
   5   7  -2    3.59    0.79
   7   5  -2    5.44    0.90
  12  -5  -2    2.36    1.06
 -12   5  -2    4.18    1.13
 -12   7  -2    3.86    0.66
  12  -7  -2    5.07    0.92
  -5  12  -2    4.20    0.66
   7   5  -2    2.86    0.61
  -7  12  -2    3.36    0.64
 -12   7  -2    3.51    0.53
  -5  -7  -2    3.54    0.65
   5   7  -2    4.11    0.75
   5 -12  -2    5.11    1.00
   7 -12  -2    2.97    0.96
  -7  -5  -2    4.00    0.52
  12  -7  -2    2.43    0.46
  12  -5  -2    3.00    0.37
  12  -7  -2    4.77    0.63
  -7  -5  -2    3.97    0.57
  -5  -7  -2    4.29    0.75
   7 -12  -2    3.82    0.62
  -7  -5   3    2.47    0.84
 -12   7   3    3.75    0.93
 -12   5   3    4.47    1.02
   5 -12   3    3.16    1.03
   7 -12   3    3.25    0.96
  -5  -7   3    2.22    0.76
  -7  -5   3    3.08    0.65
  12  -7   3    1.39    0.79
  12  -5   3    2.18    0.83
   7   5  -3    3.25    0.97
   5   7  -3    3.68    0.86
  -7  -5  -3    2.38    0.79
  12  -7  -3    3.71    0.95
  12  -5  -3    2.51    0.65
  -5  -7  -3    1.80    0.61
 -12   5  -3    3.67    1.15
   7 -12  -3    3.13    0.96
   5 -12  -3    4.32    1.00
  -7  12  -3    3.56    1.02
  -5  12  -3    3.70    1.08
   5   7  -3    2.11    0.81
   7   5  -3    3.34    0.65
 -12   7  -3    2.07    0.55
 -12   5  -3    1.63    0.52
  12  -5  -3    2.02    0.62
  12  -7  -3    2.23    0.76
  -7  -5  -3    2.49    0.65
  -5  -7  -3    3.63    0.75
   5 -12  -3    3.47    1.08
   7 -12  -3    4.00    1.01
 -12   7   4    1.86    0.94
 -12   5   4    1.02    1.03
   5 -12   4    1.90    1.00
   7 -12   4    0.85    0.96
  -5  -7   4    0.42    0.79
  -7  -5   4    1.59    0.96
  12  -7   4    0.71    0.70
  12  -5   4    1.04    0.65
   5   7  -4    0.22    0.96
   7   5  -4    1.58    1.01
  12  -5  -4    1.06    0.63
   7 -12  -4    1.05    0.41
  12  -7  -4    0.29    0.99
  -7  -5  -4    1.16    0.86
  -5  -7  -4    1.20    0.67
  -7  12  -4    0.47    1.03
  -5  12  -4    1.93    1.09
   7   5  -4    1.20    0.73
   5   7  -4    1.29    0.83
 -12   7  -4    1.67    0.62
 -12   5  -4    0.94    0.50
  12  -5  -4    0.79    0.84
  12  -7  -4    0.43    0.91
  -7  -5  -4    1.22    0.73
  -5  -7  -4    0.64    0.79
   7 -12  -4    0.61    0.98
   5 -12  -4    2.12    1.08
   7 -12   5    9.70    1.31
   5 -12   5    8.22    0.88
  -5  -7   5    8.57    1.13
  -7  -5   5    7.55    1.06
  12  -7   5    7.05    1.12
  12  -5   5    7.06    1.40
 -12   5   5    7.32    0.93
   5 -12  -5    5.70    0.73
   5   7  -5    8.15    1.44
   7   5  -5    6.97    1.43
   7 -12  -5    6.65    0.86
  12  -5  -5    9.19    0.85
  12  -7  -5    9.29    1.30
  -7  12  -5    8.31    1.40
  -5  12  -5    9.73    1.43
   7   5  -5    7.43    1.10
   5   7  -5    9.68    1.19
 -12   7  -5    6.05    1.25
 -12   5  -5    6.55    1.14
  12  -5  -5    8.50    1.06
  12  -7  -5    7.60    1.36
  -7  -5  -5    7.51    1.43
  -5  -7  -5    7.58    1.15
   5 -12  -5    8.72    1.46
   7 -12  -5   10.04    1.37
   5 -12   6    1.48    1.16
   7 -12   6    2.06    1.14
  -5  -7   6    1.46    0.98
  -7  -5   6    0.68    0.96
  12  -7   6    0.46    1.02
  12  -5   6    0.98    1.35
 -12   5   6    0.83    0.93
 -12   7   6    1.28    0.97
   5 -12  -6    0.58    0.96
   7   5  -6    2.75    1.23
   5   7  -6    3.46    1.29
   7 -12  -6    0.67    1.02
  12  -5  -6    1.96    1.17
  12  -7  -6    1.20    1.15
  -5  12  -6    2.22    1.23
  -7  12  -6    0.60    1.20
   7   5  -6    2.44    0.98
   5   7  -6    2.74    1.05
 -12   7  -6    0.71    1.23
 -12   5  -6    0.33    1.14
  12  -5  -6    1.45    0.99
  12  -7  -6    1.42    0.97
  -7  -5  -6    1.69    0.96
  -5  -7  -6    1.48    1.03
   7 -12  -6    0.39    1.13
   5 -12  -6    1.28    0.75
   5 -12   7    4.40    1.34
   7 -12   7    4.61    1.32
  -5  -7   7    3.71    1.19
  -7  -5   7    3.59    1.17
  12  -7   7    0.35    1.27
  12  -5   7    3.55    1.26
 -12   5   7    3.41    1.56
 -12   7   7    3.85    1.24
   5 -12  -7    2.73    1.36
   7 -12  -7    1.56    1.48
   5   7  -7    2.58    1.51
   7   5  -7    3.15    1.43
  12  -5  -7    4.15    1.37
  12  -7  -7    2.81    1.37
  -5  12  -7    4.02    1.38
  -7  12  -7    6.50    1.38
   5   7  -7    4.89    1.25
   7   5  -7    1.67    1.24
 -12   7  -7    2.59    1.14
 -12   5  -7    3.04    1.08
  12  -5  -7    3.56    1.64
  12  -7  -7    3.79    1.21
  -7  -5  -7    3.15    1.18
  -5  -7  -7    1.92    1.23
   7 -12  -7    3.81    1.32
   5 -12  -7    4.27    1.39
   5 -12   8   -1.06    1.24
   7 -12   8   -0.11    1.23
  -5  -7   8   -0.44    1.15
  -7  -5   8    0.73    1.12
  12  -7   8   -0.98    1.18
  12  -5   8    1.93    1.22
 -12   5   8   -0.71    1.13
 -12   7   8   -0.91    1.24
   7   5   8   -0.44    1.40
   5 -12  -8   -0.49    1.03
   7 -12  -8    0.22    1.13
   7   5  -8   -0.72    1.29
   5   7  -8   -1.28    1.32
  12  -5  -8   -1.13    1.26
  12  -7  -8   -1.78    1.27
  -7  12  -8   -0.55    0.79
  -5  12  -8   -1.18    1.31
   5   7  -8   -0.52    1.20
   7   5  -8    0.91    1.20
 -12   7  -8    0.14    1.08
 -12   5  -8    1.89    1.06
  12  -5  -8    1.37    1.18
  12  -7  -8    0.07    1.13
  -7  -5  -8    1.16    1.07
  -5  -7  -8   -0.05    1.14
   7 -12  -8    0.65    1.22
   5 -12  -8   -0.88    1.33
   5 -12   9    2.16    1.47
   7 -12   9    1.64    1.43
  -5  -7   9    0.35    1.37
  -7  -5   9    1.75    1.35
  12  -7   9   -0.87    1.96
  12  -5   9    2.47    2.02
 -12   5   9    3.38    1.42
 -12   7   9    2.17    1.52
   7   5   9   -0.60    1.67
   5   7   9    0.30    1.55
   5 -12  -9    0.79    1.28
   7 -12  -9    2.14    1.93
   5   7  -9    0.57    1.40
   7   5  -9    1.30    1.46
  12  -7  -9   -0.38    1.56
  12  -5  -9    0.76    1.53
  -5  12  -9    0.52    1.48
  -7  12  -9    0.21    1.48
   5   7  -9    1.35    1.40
   7   5  -9    2.31    1.44
 -12   7  -9    1.94    1.33
 -12   5  -9   -0.54    1.79
  12  -5  -9    2.01    1.44
  12  -7  -9    2.56    1.33
  -7  -5  -9    1.93    1.33
  -5  -7  -9    0.00    1.37
   7 -12  -9    2.45    1.44
   5 -12  -9    1.66    1.53
   5 -12  10   -1.08    1.50
   7 -12  10    1.15    1.50
  -5  -7  10    0.02    1.42
  -7  -5  10   -0.02    1.39
  12  -7  10    0.62    1.52
  12  -5  10    0.87    1.65
 -12   5  10   -1.47    1.57
 -12   7  10    0.87    1.67
   7   5  10    2.60    1.77
   5   7  10    1.97    1.62
   7 -12 -10    1.30    1.60
   5   7 -10    1.95    1.44
   7   5 -10   -0.42    1.49
  12  -5 -10    0.73    1.63
  12  -7 -10   -0.31    1.65
  -7  12 -10   -0.08    1.55
  -5  12 -10   -1.91    1.57
   7   5 -10   -1.31    1.54
   5   7 -10    0.06    1.53
 -12   7 -10    0.10    1.45
 -12   5 -10   -1.05    1.93
  12  -5 -10    0.22    1.54
  12  -7 -10   -0.17    1.43
  -7  -5 -10    1.55    1.40
  -5  -7 -10    1.19    1.39
   7 -12 -10    1.37    1.47
   5 -12 -10    1.10    0.93
   5 -12  11    1.50    1.81
   7 -12  11    2.46    1.71
  -5  -7  11    3.50    1.69
  -7  -5  11    0.42    1.61
  12  -7  11    1.60    1.79
  12  -5  11    3.69    1.97
 -12   5  11    2.07    1.85
 -12   7  11    2.00    1.99
   7   5  11    3.29    2.09
   5   7  11   -0.61    1.98
   7 -12 -11    5.07    2.00
   5   7 -11    1.74    1.02
   7   5 -11    0.76    1.69
  12  -5 -11    1.85    1.93
  12  -7 -11    2.74    1.97
  -7  12 -11    1.77    1.11
  -5  12 -11    0.02    1.76
   5   7 -11    1.86    1.77
   7   5 -11    3.59    1.78
 -12   7 -11   -0.43    1.75
 -12   5 -11    1.26    2.30
  12  -5 -11   -0.76    1.81
  12  -7 -11    0.26    1.66
  -7  -5 -11    1.58    1.62
  -5  -7 -11   -0.74    1.67
   5 -12 -11    4.63    1.84
   7 -12 -11   -0.72    1.70
   5 -12  12   -0.27    1.91
   7 -12  12    0.77    1.83
  -5  -7  12    1.71    1.75
  -7  -5  12    1.52    1.79
  12  -7  12   -0.30    1.95
  12  -5  12    0.02    2.13
 -12   5  12    0.64    1.99
 -12   7  12    3.92    2.10
   7   5  12    3.01    2.22
   5   7  12   -0.75    2.12
   5 -12 -12    1.36    1.92
   7 -12 -12    2.53    2.23
   5   7 -12   -0.25    1.76
   7   5 -12    0.98    1.81
  12  -5 -12    1.93    1.30
  12  -7 -12    0.46    1.35
  -7  12 -12    0.79    1.85
  -5  12 -12    1.86    1.15
   5   7 -12    1.00    1.88
   7   5 -12   -0.18    1.92
 -12   7 -12    1.11    1.85
 -12   5 -12    1.69    1.82
  12  -5 -12   -0.37    1.86
  12  -7 -12    0.09    1.72
  -7  -5 -12    0.50    1.72
  -5  -7 -12    0.83    1.73
   5 -12 -12   -1.03    1.85
   7 -12 -12    0.16    1.80
  -6  -7   0   44.83    1.67
  -7  -6   0   46.52    1.76
 -13   7   0   52.49    2.34
 -13   6   0   50.75    2.39
  -7  -6   0   45.15    1.45
  -6  -7   0   45.49    1.57
  13  -7   0   52.02    1.18
  -6  -7   1    1.66    0.71
  -7  -6   1    1.89    0.78
  -7  -6   1    2.37    0.58
  -6  -7   1    3.71    0.63
  13  -7   1    1.93    0.50
  -6  -7  -1    2.73    0.63
  -7  -6  -1    4.61    0.74
 -13   6  -1    3.08    0.70
 -13   7  -1    4.15    1.12
   7   6  -1    1.93    0.84
   6   7  -1    2.43    0.75
  -7  -6  -1    3.66    0.55
  -6  -7  -1    2.20    0.61
  13  -7  -1    2.01    0.43
  13  -7  -1    2.59    0.46
  -6  -7  -1    2.96    0.65
  -6  -7   2   12.13    1.06
  -7  -6   2   11.42    1.16
 -13   7   2   15.22    1.34
 -13   6   2   14.21    1.40
   7 -13   2   14.94    1.38
   6 -13   2   15.60    1.38
  -6  -7   2   16.28    1.01
  -7  -6   2   14.60    1.22
  13  -7   2   13.87    0.98
  13  -6   2   12.94    0.78
  -7  -6  -2   14.49    1.02
  -6  -7  -2   14.57    0.91
   7   6  -2   13.19    1.26
 -13   7  -2   16.33    1.54
   6   7  -2   12.47    1.53
 -13   6  -2   16.49    1.58
  13  -7  -2   14.02    0.90
  13  -6  -2   16.37    1.44
   6   7  -2   14.48    1.02
  -7  13  -2   16.16    1.50
  -6  13  -2   16.25    1.53
   7 -13  -2   15.12    0.90
  -7  -6  -2   12.28    0.83
  -6  -7  -2   14.06    0.89
   6 -13  -2   14.68    1.42
  13  -6  -2   15.69    0.72
  13  -7  -2   14.35    0.92
  -7  -6  -2   13.85    1.12
  -6  -7  -2   14.04    0.99
 -13   7   3    0.04    0.95
 -13   6   3   -0.81    1.01
   6 -13   3    0.36    0.99
   7 -13   3    0.22    0.95
  -6  -7   3    0.49    0.97
  -7  -6   3   -0.30    0.68
  13  -7   3    0.69    0.77
  13  -6   3    1.53    0.69
  -6  -7  -3   -0.20    0.64
   7   6  -3    0.23    0.94
   6   7  -3    1.19    0.89
  -7  -6  -3   -0.09    0.72
  13  -6  -3   -0.71    1.04
  13  -7  -3    0.16    1.00
 -13   6  -3   -0.23    1.17
 -13   7  -3    0.18    1.10
  -7  -6  -3    0.02    0.58
   7 -13  -3    1.28    0.98
  -6  -7  -3    0.81    0.64
   6 -13  -3    1.78    1.01
   7   6  -3   -0.12    0.67
  -7  13  -3    1.04    1.04
   6   7  -3    0.39    0.74
  -6  13  -3    0.46    1.07
 -13   6  -3    0.15    0.45
 -13   7  -3    0.94    0.42
  13  -6  -3    0.60    0.67
  13  -7  -3    0.83    0.54
  -7  -6  -3    0.85    0.62
  -6  -7  -3    0.76    0.68
   7 -13  -3    2.92    1.02
   6 -13  -3   -0.49    1.07
 -13   7   4    7.59    1.29
 -13   6   4    9.58    1.34
   7 -13   4    8.77    1.30
   6 -13   4    8.47    1.33
  -6  -7   4    7.59    1.03
  -7  -6   4    7.30    1.00
  13  -7   4    7.09    1.30
  13  -6   4    7.74    1.17
   6   7  -4    6.84    1.35
   7   6  -4    7.76    1.37
  13  -6  -4    9.93    1.37
  13  -7  -4   10.15    1.32
  -7  -6  -4    9.43    1.44
  -7  13  -4    9.76    1.43
   6   7  -4    8.96    1.08
   7   6  -4    9.25    1.03
  -6  13  -4   10.12    1.43
 -13   7  -4    6.49    1.04
 -13   6  -4    6.71    0.72
  13  -6  -4    6.74    1.18
  13  -7  -4    7.52    0.94
  -7  -6  -4    7.14    0.98
  -6  -7  -4    6.99    0.99
   7 -13  -4    9.51    1.35
   6 -13  -4    9.50    1.47
   7 -13   5    2.02    1.11
   6 -13   5    1.20    0.70
  -6  -7   5    0.84    0.88
  -7  -6   5    1.05    0.87
  13  -7   5    0.47    0.91
  13  -6   5    0.02    1.13
   6   7  -5    0.55    1.19
   7   6  -5   -0.13    1.22
   6 -13  -5    0.68    0.38
   7 -13  -5    0.59    0.47
  13  -7  -5    1.88    1.12
  13  -6  -5    2.02    1.15
   7   6  -5    2.02    0.91
  -7  13  -5    0.69    1.17
   6   7  -5    2.79    0.95
  -6  13  -5   -0.20    1.18
 -13   7  -5    0.67    0.74
 -13   6  -5    0.64    0.91
  13  -6  -5   -0.85    1.17
  13  -7  -5    0.81    1.16
  -6  -7  -5    1.32    0.92
  -7  -6  -5   -0.72    0.88
   7 -13  -5    1.66    1.16
   6 -13  -5    1.37    1.19
   7 -13   6    6.04    1.34
   6 -13   6    5.81    1.35
  -6  -7   6    2.71    1.15
  -7  -6   6    3.48    1.12
  13  -7   6    2.65    1.61
  13  -6   6    3.23    1.16
 -13   6   6    2.56    1.38
   6 -13  -6    2.14    0.82
   7 -13  -6    1.87    0.88
   6   7  -6    5.18    1.54
   7   6  -6    4.82    1.55
  13  -6  -6    4.86    0.87
  13  -7  -6    5.85    0.88
  -7  13  -6    7.04    1.44
  -6  13  -6    5.03    1.45
   7   6  -6    4.73    1.24
   6   7  -6    4.96    1.25
 -13   7  -6    4.42    1.06
 -13   6  -6    4.29    0.99
  13  -6  -6    3.64    1.20
  13  -7  -6    5.98    1.18
  -7  -6  -6    2.99    1.14
  -6  -7  -6    5.28    1.18
   7 -13  -6    6.15    0.84
   6 -13  -6    5.41    1.41
   7 -13   7    0.57    1.22
   6 -13   7   -0.21    1.22
  -6  -7   7   -0.20    1.06
  -7  -6   7    1.42    1.05
  13  -7   7    0.82    1.19
  13  -6   7    1.32    1.53
 -13   6   7    0.37    1.08
 -13   7   7    0.71    1.09
   6 -13  -7    0.60    1.14
   6   7  -7   -0.55    1.38
   7   6  -7    1.03    1.37
   7 -13  -7    0.39    1.16
  13  -6  -7    1.21    1.24
  13  -7  -7   -0.87    1.27
  -7  13  -7    1.07    1.28
  -6  13  -7    0.32    1.30
   7   6  -7    0.92    1.15
   6   7  -7   -0.67    1.17
 -13   7  -7    1.14    1.02
 -13   6  -7    0.51    1.28
  13  -6  -7    0.21    1.15
  13  -7  -7    0.94    1.12
  -7  -6  -7   -0.61    1.06
  -6  -7  -7    0.48    1.08
   7 -13  -7    0.30    0.75
   6 -13  -7    0.28    1.29
   7 -13   8    0.80    1.38
   6 -13   8    2.57    1.41
  -6  -7   8    2.04    1.26
  -7  -6   8    2.63    1.26
  13  -7   8    1.25    1.41
  13  -6   8   -0.34    1.43
 -13   6   8    3.53    1.35
 -13   7   8   -0.13    1.33
   6 -13  -8    2.70    1.58
   6   7  -8    2.96    1.56
   7 -13  -8    2.67    1.64
   7   6  -8    3.48    1.51
  13  -7  -8    2.12    1.51
  13  -6  -8    0.41    1.48
  -7  13  -8    2.01    1.46
  -6  13  -8    1.33    1.46
   6   7  -8    0.85    1.38
   7   6  -8    2.15    1.38
 -13   7  -8    0.49    1.25
 -13   6  -8    2.63    1.21
  13  -6  -8    0.75    1.82
  13  -7  -8    1.75    1.77
  -7  -6  -8    1.48    1.22
  -6  -7  -8    1.60    1.28
   7 -13  -8    2.23    1.42
   6 -13  -8    3.28    1.49
   7 -13   9    1.16    1.47
   6 -13   9    0.18    1.52
  -7  -6   9    1.21    1.34
  -6  -7   9    0.51    1.38
  13  -7   9    0.11    1.54
  13  -6   9   -0.35    1.62
 -13   7   9    2.30    1.58
 -13   6   9    2.34    1.53
   7   6   9    1.79    1.77
   7 -13  -9    1.44    1.47
   6 -13  -9    1.61    1.40
   7   6  -9   -0.44    1.58
   6   7  -9   -0.18    1.56
  13  -6  -9    1.31    1.60
  13  -7  -9    1.02    1.56
  -7  13  -9   -0.57    1.56
  -6  13  -9   -0.13    1.55
   6   7  -9    0.59    1.48
   7   6  -9    0.93    1.51
 -13   7  -9    1.26    1.38
 -13   6  -9    0.27    1.36
  13  -6  -9   -0.34    1.50
  13  -7  -9    2.71    1.44
  -7  -6  -9    0.63    1.30
  -6  -7  -9    1.23    1.36
   7 -13  -9    2.26    0.93
   6 -13  -9    2.60    1.53
   7 -13  10   -0.29    1.61
   6 -13  10    1.20    1.02
  -7  -6  10    0.44    1.52
  -6  -7  10    3.65    1.54
  13  -7  10   -0.07    1.78
  13  -6  10    2.67    1.79
 -13   6  10    3.98    1.69
 -13   7  10    0.87    2.44
   7   6  10    3.03    1.98
   6 -13 -10    1.06    1.71
   7 -13 -10    1.88    2.31
   7   6 -10    1.58    1.64
   6   7 -10    2.43    1.62
  13  -6 -10    2.56    1.13
  13  -7 -10    2.28    1.12
  -7  13 -10    2.22    1.67
  -6  13 -10    2.03    1.07
   7   6 -10    0.14    1.66
   6   7 -10    1.11    1.63
 -13   7 -10   -0.26    1.59
 -13   6 -10    1.08    2.06
  13  -6 -10    2.06    1.66
  13  -7 -10    1.63    1.57
  -7  -6 -10    0.38    1.51
  -6  -7 -10    1.78    1.48
   7 -13 -10    0.46    1.65
   6 -13 -10   -0.84    1.69
   7 -13  11    0.62    1.10
   6 -13  11    2.02    1.81
  -6  -7  11    1.33    1.69
  -7  -6  11    0.77    1.65
  13  -6  11    1.95    2.03
  13  -7  11    1.50    1.99
 -13   6  11    1.99    1.92
 -13   7  11    1.82    2.06
   7   6  11    0.48    2.27
   6   7  11    2.01    2.12
   6 -13 -11   -0.18    1.98
   7 -13 -11   -0.16    2.72
   7   6 -11    0.77    1.74
   6   7 -11    1.32    1.69
  13  -6 -11    0.47    2.01
  13  -7 -11    2.48    2.06
  -7  13 -11    1.75    1.85
  -6  13 -11    0.73    1.81
   6   7 -11    0.96    1.82
   7   6 -11    5.03    1.90
 -13   7 -11   -0.82    1.80
 -13   6 -11    2.45    1.76
  13  -6 -11    2.97    1.85
  13  -7 -11    0.43    1.74
  -7  -6 -11    0.70    1.62
  -6  -7 -11    0.60    1.02
   7 -13 -11    1.72    1.77
   6 -13 -11    2.18    1.82
  -7  -7   0    3.75    0.76
   7 -14   0    4.50    1.14
  -7  -7   1    2.16    1.06
   7 -14   1    3.44    0.66
  -7  -7  -1    3.31    0.97
 -14   7  -1    3.13    1.25
  -7  -7  -1    3.13    0.89
  -7  -7   2    3.80    0.88
 -14   7   2    4.53    1.16
   7 -14   2    5.68    1.15
  -7  -7   2    4.35    0.75
  14  -7   2    4.56    0.63
  -7  -7  -2    3.85    0.77
 -14   7  -2    4.11    1.31
   7   7  -2    3.18    1.00
  -7  14  -2    4.30    1.25
   7 -14  -2    3.39    1.19
  -7  -7  -2    3.78    0.67
  14  -7  -2    4.67    0.66
  -7  -7  -2    4.30    0.72
 -14   7   3    1.24    1.03
   7 -14   3    0.82    1.04
  -7  -7   3    1.45    0.72
  14  -7   3   -0.60    0.72
   7   7  -3    0.41    0.96
  -7  -7  -3    0.26    0.93
 -14   7  -3    0.03    0.74
  14  -7  -3    0.87    1.08
  -7  14  -3   -0.04    1.12
  -7  -7  -3   -0.19    0.63
   7   7  -3    0.34    0.99
   7 -14  -3   -0.86    1.06
 -14   7  -3    0.43    0.43
  14  -7  -3    0.41    0.34
  14  -7  -3    0.89    0.76
  -7  -7  -3    0.57    0.66
   7 -14  -3    0.72    1.12
 -14   7   4    3.67    1.22
   7 -14   4    3.43    1.25
  -7  -7   4    3.66    0.94
  14  -7   4    2.67    1.09
   7   7  -4    3.75    1.26
  14  -7  -4    5.94    1.27
  -7  -7  -4    2.96    0.92
 -14   7  -4    4.79    0.93
   7 -14  -4    4.17    1.26
   7   7  -4    4.12    1.00
  -7  14  -4    5.23    1.34
 -14   7  -4    3.40    0.84
  14  -7  -4    4.95    1.17
  -7  -7  -4    4.18    0.87
   7 -14  -4    4.54    1.35
 -14   7   5    1.62    0.72
   7 -14   5    4.23    1.23
  -7  -7   5    0.91    0.99
  14  -7   5    2.29    1.28
   7   7  -5    1.84    1.39
  14  -7  -5    3.21    1.29
  -7  -7  -5    4.16    1.03
  -7  14  -5    2.66    0.83
   7   7  -5    2.57    1.05
 -14   7  -5    0.75    0.79
  14  -7  -5    2.54    1.03
  -7  -7  -5    3.21    0.98
   7 -14  -5    1.38    1.30
   7 -14   6    3.12    0.80
  -7  -7   6    1.85    1.08
  14  -7   6    1.88    1.54
   7   7  -6    3.01    1.56
   7 -14  -6    1.47    0.57
  14  -7  -6    3.28    1.35
  -7  14  -6    4.18    1.42
 -14   7  -6    2.37    1.25
  14  -7  -6    2.99    1.55
  -7  -7  -6    2.14    1.48
   7 -14  -6    1.05    1.39
   7 -14   7   -1.26    0.80
  -7  -7   7    0.95    1.09
  14  -7   7    1.83    1.23
 -14   7   7    0.03    1.07
   7 -14  -7    0.38    3.32
   7   7  -7    0.53    1.54
  14  -7  -7    1.27    0.82
  -7  14  -7    2.71    1.37
   7   7  -7    0.01    1.25
 -14   7  -7    0.38    1.03
  14  -7  -7    0.99    1.23
  -7  -7  -7    0.56    1.08
   7 -14  -7    0.19    1.35
   7 -14   8    0.51    0.84
  -7  -7   8   -0.66    1.20
  14  -7   8   -0.54    1.87
 -14   7   8    1.71    1.72
   7   7  -8    1.85    1.57
   7 -14  -8   -0.65    0.87
  14  -7  -8   -1.97    1.43
  -7  14  -8   -0.33    1.47
   7   7  -8    1.28    1.40
 -14   7  -8    0.18    1.20
  14  -7  -8    0.10    1.31
  -7  -7  -8    1.44    1.19
   7 -14  -8    0.34    1.44
   7 -14   9    0.71    0.92
  -7  -7   9    2.46    1.35
  14  -7   9   -1.27    1.64
 -14   7   9   -0.29    1.50
   7 -14  -9    0.12    1.85
   7   7  -9    0.86    1.64
  14  -7  -9    0.96    1.01
  -7  14  -9    1.41    1.56
   7   7  -9    0.55    1.57
 -14   7  -9   -0.82    1.36
  14  -7  -9   -0.91    1.49
  -7  -7  -9   -0.91    1.29
   7 -14  -9   -0.25    1.53
   7 -14  10    3.83    1.66
  -7  -7  10    0.88    1.58
  14  -7  10    2.32    1.93
 -14   7  10    2.63    1.90
   7 -14 -10    0.60    1.75
   7   7 -10    1.42    1.73
  14  -7 -10   -0.99    1.96
  -7  14 -10    0.40    1.76
   7   7 -10    1.86    1.80
 -14   7 -10    0.37    2.16
  14  -7 -10   -1.21    1.70
   7 -14 -10    1.85    1.70
   7 -14  11    1.51    1.87
  14  -7  11    0.81    2.24
 -14   7  11   -2.60    2.11
   7 -14 -11    1.31    2.06
   7   7 -11    2.48    1.79
  14  -7 -11   -0.71    2.13
  -7  14 -11    4.38    1.91
   7   7 -11   -1.22    1.98
 -14   7 -11    0.80    1.82
  14  -7 -11    4.04    2.45
  -7  -7 -11    1.21    1.66
   7 -14 -11   -0.27    1.84
  -8   0   0   51.08    1.40
  -8   8   0   54.94    1.85
   8  -8   0   53.68    1.53
   0  -8   0   53.89    1.82
  -8   0   1    0.13    0.44
  -8   8   1    1.26    0.47
   0  -8   1    2.00    0.67
   8  -8   1    1.50    0.51
  -8   0   1    0.54    0.26
   0  -8  -1    1.14    0.26
   0   8  -1    0.65    0.40
  -8   0  -1    2.59    0.76
   8   0  -1    0.18    0.80
  -8   8  -1    0.78    0.52
   0   8  -1    2.29    0.75
  -8   8  -1    1.94    0.56
   8  -8  -1    0.11    0.51
   0  -8  -1    2.69    0.67
  -8   0  -1    0.73    0.27
  -8   8   2   15.14    0.75
  -8   0   2   13.58    1.14
   0  -8   2   15.41    0.99
   8  -8   2   14.22    1.07
  -8   0   2   14.34    0.65
   0   8  -2   12.65    0.90
   8   0  -2   14.55    0.75
  -8   0  -2   16.47    1.15
   8  -8  -2   15.43    0.75
   0   8  -2   16.02    1.10
  -8   8  -2   15.76    0.91
   8   0  -2   12.65    0.62
  -8   0  -2   14.80    0.62
   8  -8  -2   14.91    0.87
   0  -8  -2   15.86    1.09
  -8   0   3    0.42    0.75
   0  -8   3    1.29    0.68
   8  -8   3    0.75    0.78
  -8   0   3    0.39    0.52
   8   0   3    1.03    0.52
   0   8  -3    0.30    0.75
   8   0  -3    0.70    0.78
   8  -8  -3    0.23    0.52
   0   8  -3    0.74    0.45
  -8   8  -3   -0.32    0.61
   8   0  -3   -0.01    0.45
  -8   0  -3    0.00    0.56
   8  -8  -3    0.60    0.56
   0  -8  -3    0.93    0.78
  -8   0   4    9.54    0.67
   0  -8   4   10.08    1.02
   8  -8   4    8.36    0.88
  -8   0   4    8.07    0.72
   8   0   4    8.46    0.74
   8   0  -4    9.91    1.05
   8  -8  -4    8.73    0.84
   0   8  -4    9.52    1.04
  -8   8  -4    9.45    0.92
   8   0  -4    7.95    0.68
  -8   0  -4    7.87    0.98
   8  -8  -4    8.17    0.87
   0  -8  -4   10.57    1.08
   0  -8   5    0.54    0.85
   8  -8   5    0.67    0.76
  -8   0   5    0.60    0.69
   8   0   5    1.47    0.72
   8   0  -5    1.75    0.89
   8  -8  -5    2.07    0.73
   0   8  -5    0.02    0.87
  -8   8  -5    0.93    0.80
   8   0  -5    1.04    0.64
  -8   0  -5    1.88    0.70
   8  -8  -5    1.23    0.78
   0  -8  -5    0.20    0.57
   0  -8   6    3.21    1.05
   8  -8   6    3.73    0.97
  -8   0   6    3.09    0.96
   8   0   6    2.46    1.35
  -8   8   6    3.17    1.07
   8  -8  -6    4.16    1.00
   8   0  -6    3.44    1.08
   0   8  -6    4.36    0.67
  -8   8  -6    4.67    1.03
   8   0  -6    2.76    0.89
  -8   0  -6    2.79    1.28
   8  -8  -6    2.99    0.62
   0  -8  -6    4.54    1.12
   0  -8   7   -0.03    1.05
   8  -8   7    0.33    0.99
  -8   0   7    0.08    1.00
   8   0   7    0.53    1.05
  -8   8   7    0.57    1.09
   0   8   7    1.27    1.07
   8  -8  -7   -0.04    1.03
   8   0  -7   -0.62    1.09
   0   8  -7   -1.04    1.08
  -8   8  -7    0.90    1.03
   8   0  -7    1.21    0.94
   8  -8  -7    1.00    0.99
   0  -8  -7   -0.01    1.12
   0  -8   8   -0.08    1.12
   8  -8   8    0.61    1.07
  -8   0   8   -0.62    1.42
   8   0   8   -1.18    1.12
  -8   8   8    1.31    1.25
   0   8   8    0.57    1.16
   8  -8  -8    1.30    1.15
   8   0  -8   -0.97    1.19
   0   8  -8    1.02    0.70
  -8   8  -8    0.41    1.10
   8   0  -8    0.42    1.01
  -8   0  -8   -0.97    1.04
   8  -8  -8    0.46    0.65
   0  -8  -8    2.21    1.16
   0  -8   9    0.40    1.26
   8  -8   9   -1.94    1.23
  -8   0   9   -0.26    1.29
   8   0   9   -1.30    1.33
  -8   8   9   -0.10    1.40
   0   8   9   -2.03    1.30
   8  -8  -9   -1.56    1.38
   8   0  -9    1.68    1.32
   0   8  -9    0.05    1.26
  -8   8  -9   -2.34    1.28
   8   0  -9    0.09    1.21
  -8   0  -9   -2.05    1.22
   8  -8  -9    0.99    1.19
   0  -8  -9   -0.28    1.29
   0  -8  10    0.17    1.40
   8  -8  10    0.34    1.35
  -8   0  10   -0.96    1.39
   8   0  10    1.08    1.48
  -8   8  10   -1.37    1.54
   0   8  10   -0.39    1.40
   8  -8 -10   -0.68    1.54
   8   0 -10   -0.46    1.47
   0   8 -10    1.60    1.34
  -8   8 -10   -0.95    1.40
   8   0 -10   -0.01    1.37
  -8   0 -10   -0.54    1.35
   8  -8 -10   -2.09    1.33
   0  -8 -10   -2.10    1.41
   0  -8  11    1.05    1.49
   8  -8  11   -1.56    1.44
  -8   0  11    3.89    1.50
   8   0  11   -0.45    1.60
   0   8  11    0.57    1.57
  -8   8  11   -0.45    1.67
   8  -8 -11   -3.33    1.77
   8   0 -11    0.43    1.00
   0   8 -11   -2.18    1.43
  -8   8 -11   -2.45    1.49
   8   0 -11    1.34    1.48
  -8   0 -11    2.06    1.42
   8  -8 -11   -1.84    1.41
   0  -8 -11    0.94    0.91
   0  -8  12    1.02    1.66
   8  -8  12    0.86    1.61
  -8   0  12    1.06    1.68
   8   0  12    0.37    1.72
   0   8  12    0.71    1.77
  -8   8  12    1.00    1.84
   8  -8 -12   -0.41    1.99
   8   0 -12   -0.73    1.13
   0   8 -12   -1.05    1.60
  -8   8 -12   -1.19    1.66
   8   0 -12    3.24    1.64
  -8   0 -12    3.20    1.58
   8  -8 -12   -0.63    0.99
   0  -8 -12   -0.59    1.67
   0  -8  13    0.45    1.77
   8  -8  13   -0.83    1.74
  -8   0  13    0.73    1.78
   8   0  13   -1.28    1.86
   0   8  13    0.19    1.92
  -8   8  13    1.35    1.99
   8  -8 -13    1.72    2.21
   8   0 -13    0.29    1.23
   0   8 -13    0.81    1.67
  -8   8 -13   -1.77    1.75
   8   0 -13    1.98    1.75
  -8   0 -13   -0.49    1.66
   8  -8 -13   -0.34    1.64
   0  -8 -13   -1.00    1.76
  -9   1   0   13.65    0.73
  -8  -1   0   15.92    1.08
  -9   8   0   13.88    0.85
  -8   9   0   12.94    0.66
   8  -9   0   15.19    0.86
   1  -9   0   15.55    1.04
  -1  -8   0   15.87    0.96
   9  -8   0   13.35    0.70
  -8  -1   0   14.05    0.43
  -8  -1   0   14.17    0.44
  -9   1   1   25.69    1.38
  -9   8   1   26.68    1.02
  -8  -1   1   25.52    1.35
  -8   9   1   23.08    0.82
   1  -9   1   25.21    1.27
   8  -9   1   25.40    1.08
  -1  -8   1   23.94    1.18
   9  -8   1   24.12    0.92
  -8  -1   1   26.76    0.67
  -1  -8  -1   25.16    0.72
  -8  -1  -1   27.11    1.36
   1   8  -1   23.94    0.95
  -9   1  -1   28.05    1.43
   9  -1  -1   27.05    1.48
   8   1  -1   24.60    1.42
  -9   8  -1   23.72    1.13
  -8   9  -1   24.35    0.95
  -9   8  -1   26.57    1.00
  -1   9  -1   27.99    1.40
  -8   9  -1   27.36    1.18
   1   8  -1   27.28    1.31
   8  -9  -1   25.28    1.08
   9  -8  -1   24.95    0.92
   1  -9  -1   25.42    1.32
  -1  -8  -1   25.22    1.22
  -8  -1  -1   28.50    0.75
  -8   9   2   23.67    1.06
  -9   8   2   24.94    1.32
  -8  -1   2   21.42    0.88
  -9   1   2   22.83    1.34
   1  -9   2   22.20    1.25
  -1  -8   2   24.07    1.21
   8  -9   2   23.46    1.10
   9  -8   2   21.58    0.94
  -8  -1   2   21.15    0.83
  -1   9  -2   23.12    1.03
   1   8  -2   20.44    1.15
   8   1  -2   22.24    1.38
  -1  -8  -2   20.75    0.70
   9  -1  -2   23.91    1.42
   9  -8  -2   23.51    1.32
  -8  -1  -2   23.88    1.36
   8  -9  -2   22.18    0.80
  -9   1  -2   23.76    1.44
   8  -9  -2   23.34    1.10
   1  -9  -2   23.16    1.28
  -1  -8  -2   23.80    1.19
   1   8  -2   24.04    1.28
  -8   9  -2   24.60    1.19
  -1   9  -2   22.83    0.90
  -9   8  -2   24.29    1.06
   8   1  -2   20.70    0.72
  -8  -1  -2   23.38    0.87
   9  -8  -2   22.01    0.97
   8  -9  -2   21.57    1.41
  -1  -8  -2   24.41    1.28
  -9   8   3    5.05    0.67
  -8  -1   3    4.83    0.93
  -9   1   3    5.23    0.97
  -1  -8   3    5.39    0.82
   1  -9   3    5.16    0.87
   8  -9   3    4.58    0.74
   9  -8   3    4.69    0.66
  -8  -1   3    3.36    0.68
  -9   1   3    3.52    0.58
   9  -1   3    2.91    0.57
  -1   9  -3    3.37    0.66
   1   8  -3    4.70    0.71
   9  -1  -3    5.73    0.96
   8   1  -3    4.46    0.93
   9  -8  -3    4.74    0.94
   8  -9  -3    4.52    0.74
  -1   9  -3    4.62    0.94
   1   8  -3    5.52    0.87
  -9   8  -3    5.07    0.70
  -8   9  -3    5.52    0.82
   8   1  -3    3.63    0.59
   9  -1  -3    3.39    0.51
  -9   1  -3    4.20    0.57
  -8  -1  -3    4.10    0.50
   9  -8  -3    4.40    0.66
   8  -9  -3    5.03    0.74
   1  -9  -3    5.15    0.96
  -1  -8  -3    4.95    0.90
  -9   1   4    7.62    1.14
   1  -9   4    8.14    1.01
  -1  -8   4    9.27    0.98
   8  -9   4    7.86    0.89
   9  -8   4    7.25    0.84
  -8  -1   4    6.38    0.75
  -9   1   4    6.41    0.68
   9  -1   4    6.77    0.72
   8   1   4    5.96    0.79
   1   8  -4    8.10    1.03
   9  -1  -4    8.10    0.71
   8  -9  -4    7.76    1.02
   8   1  -4    9.08    1.11
   9  -8  -4    8.47    0.90
   1   8  -4    9.45    1.01
  -8   9  -4    8.00    0.97
  -1   9  -4    9.89    1.07
  -9   8  -4    8.32    0.87
   8   1  -4    7.28    0.68
   9  -1  -4    6.62    0.65
  -9   1  -4    7.50    0.68
  -8  -1  -4    7.92    0.76
   9  -8  -4    8.17    0.80
   8  -9  -4    7.50    0.92
  -1  -8  -4    9.46    1.05
   1  -9  -4    9.73    1.12
  -1  -8   5   16.16    1.32
   1  -9   5   15.33    1.36
   8  -9   5   15.25    1.24
   9  -8   5   15.42    1.21
  -8  -1   5   13.14    1.15
  -9   1   5   13.19    1.11
   9  -1   5   12.34    1.18
   8   1   5   13.15    1.21
   1   8  -5   15.70    1.39
   8   1  -5   16.40    1.43
   9  -8  -5   16.51    1.24
   9  -1  -5   15.81    1.41
   8  -9  -5   15.00    1.16
   1   8  -5   16.99    1.37
  -1   9  -5   17.95    1.40
  -8   9  -5   16.18    1.33
  -9   8  -5   15.32    1.24
   8   1  -5   13.55    1.39
   9  -1  -5   13.85    1.05
  -9   1  -5   13.63    1.10
  -8  -1  -5   15.68    1.19
   9  -8  -5   15.58    1.20
   8  -9  -5   15.55    1.26
   1  -9  -5   17.43    1.43
  -1  -8  -5   17.35    0.93
   1  -9   6    6.81    0.80
  -1  -8   6    6.45    1.18
   8  -9   6    6.83    1.12
   9  -8   6    5.44    1.08
  -8  -1   6    5.82    1.39
  -9   1   6    3.64    1.08
   9  -1   6    6.56    1.16
   8   1   6    5.86    1.17
  -9   8   6    7.14    1.23
   9  -8  -6    7.49    1.14
   9  -1  -6    6.28    1.27
   8   1  -6    6.71    0.79
   8  -9  -6    6.25    1.09
  -1   9  -6    7.28    1.25
   1   8  -6    7.56    1.20
  -8   9  -6    7.20    1.17
  -9   8  -6    6.29    1.16
   8   1  -6    5.92    1.04
   9  -1  -6    6.49    1.03
  -9   1  -6    5.97    1.05
  -8  -1  -6    7.77    1.06
   9  -8  -6    6.91    1.10
   8  -9  -6    6.69    1.16
   1  -9  -6    7.78    1.31
  -1  -8  -6    7.11    1.27
   1  -9   7   11.43    1.60
  -1  -8   7   13.18    1.53
   8  -9   7   10.86    1.49
   9  -8   7   11.96    1.48
  -8  -1   7   10.16    1.48
  -9   1   7    9.85    1.49
   9  -1   7   11.01    1.60
   8   1   7   11.13    2.08
  -9   8   7   11.72    1.63
  -8   9   7   12.25    1.63
   1   8   7   11.78    1.05
   9  -8  -7   15.17    1.59
   8  -9  -7   14.12    1.59
   8   1  -7   14.14    1.64
   9  -1  -7   13.25    1.61
   1   8  -7   12.60    1.53
  -1   9  -7   14.55    1.05
  -8   9  -7   15.01    1.59
  -9   8  -7   11.31    1.52
   8   1  -7   12.63    1.44
   9  -1  -7   11.69    1.88
  -9   1  -7   10.41    1.43
  -8  -1  -7   10.68    1.48
   9  -8  -7   12.60    1.47
   8  -9  -7   10.33    1.50
  -1  -8  -7   14.64    1.64
   1  -9  -7   13.64    1.12
   1  -9   8    1.62    1.16
  -1  -8   8    0.65    1.10
   8  -9   8   -0.42    1.09
   9  -8   8    0.25    1.09
  -8  -1   8    1.19    1.05
  -9   1   8    1.59    1.08
   9  -1   8    0.30    1.17
   8   1   8    1.34    1.15
  -9   8   8    0.54    1.23
   1   8   8   -0.25    1.19
  -8   9   8    0.64    0.74
  -1   9   8   -0.04    1.17
   8  -9  -8   -0.74    1.15
   9  -8  -8    0.44    1.18
   8   1  -8   -0.25    1.18
   9  -1  -8    0.41    1.17
  -1   9  -8   -0.73    1.15
   1   8  -8   -0.44    1.11
  -8   9  -8    0.45    1.15
  -9   8  -8    0.03    0.67
   8   1  -8    0.34    1.03
   9  -1  -8    1.23    1.06
  -9   1  -8    0.33    1.03
  -8  -1  -8    0.42    1.05
   8  -9  -8    0.66    1.08
  -1  -8  -8    1.26    1.18
   1  -9  -8   -1.17    0.74
   1  -9   9    2.90    1.45
  -1  -8   9    4.17    1.45
   8  -9   9    1.54    1.40
   9  -8   9    3.40    1.41
  -8  -1   9    0.93    1.39
  -9   1   9    2.42    1.45
   9  -1   9    4.17    1.51
   8   1   9    5.26    1.54
  -9   8   9    3.28    1.57
  -8   9   9    2.47    1.54
   1   8   9    1.35    1.51
  -1   9   9    2.78    1.52
   8  -9  -9    5.12    1.57
   9  -1  -9    3.95    1.02
   9  -8  -9    4.20    1.61
   8   1  -9    3.79    1.51
   1   8  -9    3.74    1.44
  -1   9  -9    2.40    1.47
  -9   8  -9    1.44    1.41
  -8   9  -9    4.13    1.46
   8   1  -9    5.12    1.39
   9  -1  -9    1.74    1.87
  -9   1  -9    4.13    1.36
  -8  -1  -9    3.60    1.38
   9  -8  -9    3.54    1.33
   8  -9  -9    3.21    1.37
  -1  -8  -9    3.17    1.46
   1  -9  -9    4.50    0.94
   1  -9  10    3.02    1.56
  -1  -8  10    0.73    1.56
   8  -9  10    1.45    1.53
   9  -8  10    3.37    1.53
  -8  -1  10    4.18    1.49
  -9   1  10    2.90    1.58
   9  -1  10    2.79    1.64
   8   1  10    0.57    1.68
  -9   8  10    3.70    1.71
  -8   9  10    3.77    1.74
  -1   9  10    2.70    1.57
   1   8  10    0.95    1.59
   8  -9 -10    3.21    1.75
   9  -8 -10    2.51    1.78
   8   1 -10    2.03    1.64
   9  -1 -10    5.22    1.67
   1   8 -10    2.44    1.50
  -1   9 -10    2.16    1.59
  -9   8 -10    2.67    1.53
  -8   9 -10    4.82    1.54
   8   1 -10    3.19    1.53
   9  -1 -10    2.33    1.57
  -9   1 -10    0.39    1.50
  -8  -1 -10    1.31    1.47
   9  -8 -10    2.40    0.91
   8  -9 -10    1.69    0.89
  -1  -8 -10    2.25    1.57
   1  -9 -10    2.45    1.62
  -1  -8  11    1.07    1.59
   1  -9  11    2.52    1.69
   8  -9  11    1.63    1.65
   9  -8  11    0.52    1.57
  -8  -1  11    1.36    1.62
  -9   1  11    4.30    1.66
   9  -1  11    1.69    1.79
   8   1  11    1.55    1.79
  -9   8  11   -0.13    1.87
  -8   9  11    1.93    1.89
  -1   9  11    1.83    1.04
   1   8  11    1.78    1.69
   8  -9 -11   -0.89    1.93
   8   1 -11    3.66    1.70
   9  -8 -11    0.55    1.93
   9  -1 -11    3.68    1.82
   1   8 -11    0.12    1.62
  -1   9 -11    3.66    1.63
  -8   9 -11    2.01    1.66
  -9   8 -11    1.16    1.65
   8   1 -11    2.90    1.62
   9  -1 -11    4.78    1.65
  -9   1 -11    1.50    1.57
  -8  -1 -11    1.72    1.57
   9  -8 -11    0.34    1.54
   8  -9 -11    3.43    1.54
   1  -9 -11    0.40    1.63
  -1  -8 -11    1.28    1.00
  -1  -8  12    0.03    1.76
   1  -9  12   -1.74    1.85
   8  -9  12    2.31    1.74
   9  -8  12    4.31    1.76
  -8  -1  12   -0.06    1.76
  -9   1  12    0.47    1.83
   9  -1  12    2.39    1.91
   8   1  12    4.45    1.93
  -9   8  12    2.48    2.03
  -8   9  12    1.88    2.03
   1   8  12    0.96    1.87
  -1   9  12    1.54    1.17
   9  -1 -12    1.99    2.03
   9  -8 -12    2.49    2.13
   8   1 -12   -0.09    1.95
   8  -9 -12    1.39    2.16
  -1   9 -12    3.31    1.79
   1   8 -12   -0.12    1.70
  -8   9 -12    1.98    1.09
  -9   8 -12    1.98    1.78
   8   1 -12    2.59    1.75
   9  -1 -12    2.29    1.79
  -9   1 -12    2.39    1.70
  -8  -1 -12    1.07    1.68
   9  -8 -12    0.99    1.65
   8  -9 -12    1.77    1.67
  -1  -8 -12    0.60    1.76
   1  -9 -12    0.88    1.75
  -9   1  13    0.19    1.82
   9  -1  13   -1.82    1.97
   8   1  13    1.51    1.25
  -9   8  13   -1.80    2.09
  -8   9  13   -3.34    2.12
   9  -8 -13   -3.21    2.29
   8  -9 -13   -0.36    2.24
  -1   9 -13   -0.29    1.80
   1   8 -13   -0.09    1.76
  -8   9 -13   -1.43    1.14
  -9   8 -13    0.45    1.86
   8   1 -13   -1.41    1.87
   9  -1 -13    1.98    1.83
  -9   1 -13    0.63    1.75
  -2  -8   0   13.03    0.72
  -8  -2   0   14.86    1.06
 -10   2   0   12.11    0.74
  -8  10   0   11.82    0.73
 -10   8   0   11.58    0.92
  -2  -8   0   14.26    0.93
   8 -10   0   12.59    0.92
   2 -10   0   13.51    1.07
  10  -8   0   12.20    0.62
  -8  -2   0   13.02    0.56
  -8  -2   0   12.87    0.53
  -8  -2   1   44.13    1.79
  -8  10   1   45.06    1.33
 -10   2   1   45.30    1.95
 -10   8   1   46.12    1.58
   2 -10   1   43.88    1.78
  -2  -8   1   43.95    1.59
   8 -10   1   44.27    1.60
  10  -8   1   45.47    1.56
  -2  -8  -1   44.48    1.20
  -8  -2  -1   46.84    1.79
   2   8  -1   40.45    1.46
 -10   2  -1   46.64    2.01
 -10   8  -1   46.33    1.73
   8   2  -1   45.23    1.38
  -8  10  -1   46.64    1.32
  10  -2  -1   45.62    1.96
   2   8  -1   46.47    1.28
  -2  10  -1   47.92    2.01
  -8  10  -1   48.19    1.78
  -2  -8  -1   44.64    1.62
   8 -10  -1   44.28    1.60
   2 -10  -1   46.94    1.87
  10  -8  -1   43.97    1.48
  -8  -2  -1   44.07    1.07
  10  -8  -1   42.95    1.24
  -8  10   2   15.03    0.81
 -10   8   2   12.98    0.94
  -8  -2   2   14.80    1.16
 -10   2   2   14.92    1.22
   2 -10   2   14.11    0.74
   8 -10   2   14.28    1.01
  -2  -8   2   14.91    1.04
  10  -8   2   13.20    0.76
  -8  -2   2   14.24    0.75
  -2  10  -2   16.41    0.85
   2   8  -2   13.85    1.04
  -2  -8  -2   13.63    0.53
   8   2  -2   14.70    1.21
  -8  -2  -2   16.24    1.13
  10  -2  -2   16.25    1.30
  10  -8  -2   14.52    0.95
 -10   2  -2   16.01    0.83
  10  -8  -2   13.15    0.73
  -2  -8  -2   14.26    1.01
   2 -10  -2   14.51    1.14
   8 -10  -2   13.63    1.02
 -10   8  -2   16.65    1.09
   2   8  -2   14.64    1.10
   8   2  -2   14.47    0.69
  -8  10  -2   14.40    1.10
  -2  10  -2   13.83    1.24
  -8  -2  -2   15.41    0.80
  10  -8  -2   13.86    0.93
  -2  -8  -2   15.99    1.13
   8 -10  -2   15.32    1.02
 -10   8   3   15.90    1.01
  -8  -2   3   14.74    1.20
 -10   2   3   16.90    1.31
  -2  -8   3   14.51    1.07
   2 -10   3   14.86    1.21
   8 -10   3   14.78    1.06
  10  -8   3   13.49    0.86
  -8  -2   3   14.25    0.96
 -10   2   3   14.14    0.73
  10  -2   3   14.31    0.77
   2   8  -3   14.47    1.00
   8   2  -3   15.08    1.26
  10  -2  -3   14.02    1.30
   8 -10  -3   13.74    0.88
  10  -8  -3   15.30    1.05
  -2  -8  -3   13.12    0.79
  -8  -2  -3   16.90    1.20
   2   8  -3   16.22    1.13
  -8  10  -3   16.96    1.15
  -2  10  -3   15.71    0.83
 -10   8  -3   15.37    1.20
   8   2  -3   14.82    0.90
  10  -2  -3   16.11    0.70
 -10   2  -3   14.19    0.71
  -8  -2  -3   15.25    0.98
  10  -8  -3   13.21    1.06
  -2  -8  -3   16.85    1.15
   8 -10  -3   14.73    1.10
   2 -10  -3   17.52    1.27
 -10   2   4    6.95    1.12
   2 -10   4    5.07    0.64
  -2  -8   4    5.36    0.61
   8 -10   4    4.82    0.93
  10  -8   4    3.79    1.00
  -8  -2   4    4.45    0.72
 -10   2   4    5.62    0.81
  10  -2   4    5.72    0.90
   2   8  -4    5.68    1.00
   8   2  -4    5.56    0.67
  10  -8  -4    5.78    0.91
   8 -10  -4    6.01    0.67
  10  -2  -4    6.12    1.08
   2   8  -4    4.97    0.98
  -2  10  -4    5.63    1.11
  -8  10  -4    6.12    0.97
 -10   8  -4    4.17    0.80
   8   2  -4    4.75    0.88
  10  -2  -4    4.88    0.77
 -10   2  -4    4.72    0.79
  -8  -2  -4    5.57    0.98
  10  -8  -4    4.80    0.78
  -2  -8  -4    6.12    1.00
   8 -10  -4    6.10    0.92
   2 -10  -4    7.72    1.09
   2 -10   5   32.85    1.93
  -2  -8   5   30.48    1.77
   8 -10   5   30.60    1.79
  10  -8   5   28.45    1.61
  -8  -2   5   28.83    1.62
  10  -2   5   29.16    2.13
 -10   2   5   28.13    1.54
   8   2   5   29.71    1.71
   2   8  -5   33.21    2.10
   8   2  -5   31.49    1.35
   8 -10  -5   30.99    1.94
  10  -8  -5   33.53    2.27
  10  -2  -5   35.00    1.93
   2   8  -5   31.97    1.85
  -2  10  -5   33.95    1.36
  -8  10  -5   34.80    1.87
 -10   8  -5   30.79    1.70
   8   2  -5   32.15    1.63
  10  -2  -5   30.16    1.88
 -10   2  -5   28.29    1.84
  -8  -2  -5   27.85    2.04
  10  -8  -5   29.74    2.06
  -2  -8  -5   33.40    1.85
   8 -10  -5   31.06    1.75
   2 -10  -5   35.64    2.07
   2 -10   6    8.68    1.34
  -2  -8   6    8.44    1.25
   8 -10   6    6.63    1.25
  10  -8   6    6.35    1.15
  -8  -2   6    9.34    1.16
 -10   2   6    7.61    1.17
  10  -2   6    8.93    1.23
   8   2   6    7.31    1.34
 -10   8   6    7.95    1.26
   2   8  -6    9.88    1.41
   8 -10  -6    8.10    1.48
   8   2  -6    7.33    1.35
  10  -2  -6    8.68    0.87
  10  -8  -6    9.29    1.26
   2   8  -6    9.00    1.28
  -8  10  -6   11.42    1.31
  -2  10  -6    9.80    1.40
 -10   8  -6    8.84    1.22
   8   2  -6    8.63    1.14
  10  -2  -6    8.49    1.09
 -10   2  -6    7.17    1.41
  -8  -2  -6    8.88    1.17
  10  -8  -6    8.08    1.14
   8 -10  -6    7.51    1.25
  -2  -8  -6    9.81    1.32
   2 -10  -6    8.50    1.39
   2 -10   7   12.16    1.60
  -2  -8   7   12.26    1.55
   8 -10   7   11.21    1.00
  10  -8   7   12.91    1.47
  -8  -2   7   10.92    1.45
 -10   2   7   12.22    1.52
  10  -2   7   12.69    1.62
   8   2   7   12.73    1.67
 -10   8   7   10.41    1.61
   2   8  -7   12.42    1.58
   8 -10  -7   14.05    2.01
  10  -8  -7   13.66    1.60
  10  -2  -7   13.18    1.61
   8   2  -7   12.41    1.61
  -2  10  -7   13.98    1.60
   2   8  -7   15.23    1.51
  -8  10  -7   14.60    1.03
 -10   8  -7   12.48    1.52
   8   2  -7   13.83    1.46
 -10   2  -7   12.28    1.84
  10  -2  -7   13.99    1.46
  -8  -2  -7   10.04    1.50
  10  -8  -7   11.88    1.45
  -2  -8  -7   13.61    1.61
   8 -10  -7   12.60    1.54
   2 -10  -7   14.46    1.71
   2 -10   8    0.34    1.20
  -2  -8   8    0.38    1.12
   8 -10   8    0.88    0.70
  10  -8   8    0.17    1.08
  -8  -2   8   -0.77    1.05
 -10   2   8    0.36    1.11
  10  -2   8    0.06    1.16
   8   2   8    1.29    1.23
 -10   8   8    0.71    1.25
   2   8   8   -0.83    1.21
  -8  10   8   -0.57    1.23
   2   8  -8    0.12    1.04
   8 -10  -8   -0.20    1.16
   8   2  -8   -0.79    1.21
  10  -8  -8    0.85    1.19
  10  -2  -8    1.07    1.23
   2   8  -8    0.42    1.10
  -2  10  -8    0.58    1.21
  -8  10  -8   -0.37    1.21
 -10   8  -8    0.21    1.10
   8   2  -8    0.38    1.06
 -10   2  -8    1.54    1.37
  10  -2  -8   -0.26    1.08
  -8  -2  -8    0.51    1.07
  10  -8  -8   -0.32    1.03
  -2  -8  -8    1.23    1.19
   8 -10  -8   -0.12    1.10
   2 -10  -8   -0.29    1.24
   2 -10   9    5.68    1.56
  -2  -8   9    6.06    1.54
   8 -10   9    5.01    1.54
  10  -8   9    4.85    1.53
  -8  -2   9    4.33    1.51
 -10   2   9    4.43    1.59
  10  -2   9    6.15    1.65
   8   2   9    5.05    1.71
 -10   8   9    5.43    1.73
   2   8   9    4.39    1.64
  -8  10   9    5.24    1.73
  -2  10   9    6.48    1.03
   2   8  -9    3.65    1.36
   8 -10  -9    7.74    1.68
   8   2  -9    6.04    1.60
  10  -8  -9    6.86    1.74
  10  -2  -9    6.99    1.62
  -2  10  -9    6.19    1.57
   2   8  -9    6.78    1.56
  -8  10  -9    7.13    1.62
 -10   8  -9    4.33    1.54
   8   2  -9    6.24    1.53
  10  -2  -9    5.47    1.57
 -10   2  -9    5.22    1.46
  -8  -2  -9    5.66    1.47
  10  -8  -9    4.24    1.47
   8 -10  -9    4.89    1.49
  -2  -8  -9    5.25    1.56
   2 -10  -9    5.49    1.66
   2 -10  10    2.94    1.61
  -2  -8  10    2.66    1.54
   8 -10  10    2.50    1.57
  10  -8  10    3.69    1.49
  -8  -2  10    2.07    1.53
  10  -2  10    4.70    1.69
 -10   2  10    3.85    1.58
   8   2  10    2.77    1.77
 -10   8  10    3.29    1.81
   2   8  10    1.77    1.63
  -8  10  10    1.06    1.71
  -2  10  10    3.07    1.60
   2   8 -10    0.77    1.39
   8 -10 -10    3.01    1.76
  10  -8 -10    3.55    1.80
   8   2 -10    2.60    1.66
  10  -2 -10    4.17    1.71
   2   8 -10    3.73    0.98
  -8  10 -10    0.83    1.64
  -2  10 -10    1.86    1.61
 -10   8 -10    2.87    1.59
   8   2 -10    3.47    1.57
  10  -2 -10    1.42    1.62
 -10   2 -10    1.62    1.50
  -8  -2 -10    1.38    1.49
  10  -8 -10    3.14    1.47
  -2  -8 -10    3.23    1.57
   8 -10 -10    3.66    1.48
   2 -10 -10    1.28    1.61
  -2  -8  11    4.39    1.78
   2 -10  11    6.60    1.87
   8 -10  11    5.04    1.81
  10  -8  11    5.43    1.76
  -8  -2  11    2.74    1.79
  10  -2  11    5.66    1.97
 -10   2  11    5.41    1.88
   8   2  11    3.99    2.04
 -10   8  11    4.47    2.11
   2   8  11    5.17    1.91
  -8  10  11    3.96    1.29
  -2  10  11    4.08    1.86
   2   8 -11    3.85    1.65
   8   2 -11    6.02    1.91
   8 -10 -11    5.82    2.16
  10  -8 -11    4.85    2.18
  10  -2 -11    2.12    2.02
   2   8 -11    5.19    1.79
  -8  10 -11    5.64    1.88
  -2  10 -11    1.69    1.84
 -10   8 -11    1.93    1.83
   8   2 -11    4.23    1.92
 -10   2 -11    4.21    1.76
  10  -2 -11    6.56    1.91
  -8  -2 -11    1.83    1.71
  10  -8 -11    4.16    1.71
  -2  -8 -11    3.77    1.77
   8 -10 -11    4.22    1.70
   2 -10 -11    5.67    1.89
   2 -10  12    1.88    1.88
  -2  -8  12    0.63    1.80
   8 -10  12    1.04    1.81
  10  -8  12    0.10    1.13
  -8  -2  12    2.73    1.76
  10  -2  12    1.84    1.98
 -10   2  12    2.56    1.87
   8   2  12    0.56    2.04
 -10   8  12    1.04    2.09
   2   8  12    2.34    1.16
  -8  10  12    1.40    1.25
  -2  10  12   -0.88    1.93
   2   8 -12    3.09    1.71
   8   2 -12    1.46    1.88
   8 -10 -12   -0.51    2.20
  10  -8 -12    2.11    2.23
  10  -2 -12    0.50    1.27
  -2  10 -12    2.75    1.85
   2   8 -12    1.97    1.77
  -8  10 -12    1.86    1.85
 -10   8 -12    2.87    1.80
   8   2 -12   -1.36    1.87
 -10   2 -12    2.08    1.77
  10  -2 -12    1.89    1.87
  -8  -2 -12    2.86    1.66
  10  -8 -12    0.83    1.65
  -2  -8 -12    1.37    1.78
   8 -10 -12    2.39    1.08
   2 -10 -12    3.29    1.81
  -3  -8   0   26.04    1.12
  -8  -3   0   27.85    1.37
 -11   3   0   29.48    1.62
 -11   8   0   27.75    1.36
   8 -11   0   28.16    1.34
  -3  -8   0   26.63    1.22
   3 -11   0   25.23    1.00
  -8  -3   0   29.00    0.90
  11  -8   0   25.86    0.83
  -8  11   1    2.54    0.45
  -8  -3   1    1.67    0.48
 -11   3   1    2.52    0.92
 -11   8   1    3.22    0.74
   3 -11   1    3.11    0.88
   8 -11   1    2.50    0.47
  -3  -8   1    2.80    0.69
  11  -8   1    2.67    0.59
  -8  -3   1    2.30    0.50
  -3  -8  -1    2.86    0.41
  -8  -3  -1    2.34    0.79
 -11   3  -1    3.28    0.97
 -11   8  -1    1.00    0.80
   3   8  -1    1.05    0.49
   8   3  -1    1.70    0.86
  -8  11  -1    1.83    0.56
  11  -3  -1    3.07    0.58
   8 -11  -1    2.73    0.76
  -3  -8  -1    2.17    0.67
   3 -11  -1    2.99    0.88
  11  -8  -1    3.01    0.55
  -8  -3  -1    2.14    0.46
  -8  -3  -1    2.16    0.39
  11  -8  -1    1.84    0.44
  -8  -3   2   12.96    1.15
 -11   8   2   13.51    1.00
 -11   3   2   15.03    1.27
   3 -11   2   13.39    0.77
   8 -11   2   13.98    1.09
  -3  -8   2   13.51    1.02
  11  -8   2   12.92    0.75
  -8  -3   2   13.57    0.85
  -3  11  -2   13.50    0.81
  -3  -8  -2   13.60    0.79
   3   8  -2   11.48    0.87
  -8  -3  -2   15.04    1.12
   8   3  -2   11.26    1.21
  11  -3  -2   14.02    1.30
 -11   3  -2   14.29    1.41
 -11   8  -2   14.71    1.18
  11  -8  -2   14.10    1.02
  -8  11  -2   15.59    1.17
   8 -11  -2   15.23    1.10
  -8  -3  -2   11.75    0.72
   8   3  -2   11.76    0.79
  -3  11  -2   13.66    1.31
   3   8  -2   14.88    1.09
  -3  -8  -2   14.28    0.99
 -11   8  -2   14.35    0.80
  11  -8  -2   11.46    0.84
   3 -11  -2   14.45    1.24
  -8  -3  -2   13.97    0.86
  11  -8  -2   13.90    0.90
  -3  -8  -2   14.79    1.09
   8 -11  -2   13.77    1.10
  -8  -3   3    1.78    0.85
 -11   8   3    1.50    0.75
 -11   3   3    1.52    0.99
   3 -11   3    1.85    0.91
   8 -11   3    1.51    0.79
  -3  -8   3    1.18    0.75
  11  -8   3    1.89    0.56
  -8  -3   3    1.91    0.53
  11  -3   3    0.98    0.50
 -11   3   3    1.02    0.39
   3   8  -3    0.58    0.72
   8   3  -3    1.54    0.91
  11  -3  -3    1.97    0.98
  -3  -8  -3    1.71    0.46
  11  -8  -3    0.48    0.81
  -8  -3  -3    1.71    0.87
   8 -11  -3    2.06    0.49
 -11   3  -3    2.11    0.65
  -8  11  -3    1.83    0.87
   3   8  -3    1.74    0.81
  -3  11  -3    2.30    0.98
   8   3  -3    1.91    0.49
 -11   8  -3    1.24    0.61
 -11   3  -3    0.58    0.41
  11  -3  -3    1.33    0.42
  -8  -3  -3    1.45    0.54
  11  -8  -3    1.87    0.74
   8 -11  -3    2.30    0.86
  -3  -8  -3    1.47    0.82
   3 -11  -3    1.52    1.01
 -11   8   4    6.41    0.95
 -11   3   4    7.04    0.78
   3 -11   4    6.98    1.14
   8 -11   4    8.02    1.05
  -3  -8   4    7.27    0.98
  11  -8   4    4.90    0.83
  -8  -3   4    4.80    1.01
  11  -3   4    5.20    0.97
 -11   3   4    4.96    0.79
   3 -11  -4    4.97    0.46
   3   8  -4    5.34    1.44
   8   3  -4    6.30    1.20
  11  -3  -4    7.07    1.16
   8 -11  -4    5.45    0.61
  11  -8  -4    8.64    1.04
   3   8  -4    7.90    1.03
  -8  11  -4    7.75    1.10
  -3  11  -4    7.52    1.20
 -11   8  -4    6.20    0.83
   8   3  -4    6.55    0.76
 -11   3  -4    4.24    0.80
  11  -3  -4    5.51    0.83
  -8  -3  -4    5.66    1.06
  11  -8  -4    6.34    0.81
  -3  -8  -4    7.04    1.00
   8 -11  -4    7.54    1.04
   3 -11  -4    7.83    1.24
   3 -11   5    0.16    1.07
   8 -11   5    1.12    0.93
  -3  -8   5    0.57    0.90
  11  -8   5    0.99    1.07
  -8  -3   5   -0.23    0.76
  11  -3   5    1.48    0.82
 -11   3   5    2.08    0.68
   3   8  -5    0.36    1.11
   8   3  -5    0.50    1.04
   8 -11  -5    0.79    0.67
  11  -3  -5    1.17    1.04
  11  -8  -5   -0.71    0.95
  -8  11  -5    1.78    0.99
   3   8  -5    0.25    0.94
   8   3  -5    0.57    1.01
 -11   8  -5    0.61    0.80
 -11   3  -5   -0.57    0.88
  11  -3  -5    3.10    0.90
  -8  -3  -5    0.95    1.07
  11  -8  -5    0.66    0.77
   8 -11  -5    0.49    0.92
  -3  -8  -5    0.65    0.95
   3 -11  -5    0.74    1.13
   3 -11   6    3.18    1.25
   8 -11   6    3.26    1.14
  -3  -8   6    2.92    1.12
  11  -8   6    2.89    1.05
  -8  -3   6    3.35    1.01
  11  -3   6    3.93    1.52
 -11   3   6    3.48    1.29
   8   3   6    4.02    1.16
 -11   8   6    2.39    1.10
   3   8  -6    2.70    1.34
   8 -11  -6    5.16    0.96
   8   3  -6    2.58    1.28
  11  -8  -6    5.12    1.17
  11  -3  -6    4.80    1.26
  -3  11  -6    4.21    1.28
  -8  11  -6    5.09    1.21
   3   8  -6    5.43    1.15
   8   3  -6    3.80    1.38
 -11   8  -6    4.18    1.07
 -11   3  -6    3.51    0.89
  11  -3  -6    3.72    1.30
  -8  -3  -6    2.32    1.36
  11  -8  -6    3.30    1.02
  -3  -8  -6    4.07    1.18
   8 -11  -6    3.56    0.70
   3 -11  -6    5.50    1.33
   3 -11   7    0.64    1.16
   8 -11   7    1.11    1.09
  -3  -8   7   -0.34    1.10
  11  -8   7    0.47    1.42
  -8  -3   7    0.59    1.36
  11  -3   7    1.09    1.16
 -11   3   7    0.45    1.01
   8   3   7    1.41    1.26
 -11   8   7    0.47    1.13
   3   8  -7   -1.04    1.23
   8 -11  -7    0.50    1.03
   8   3  -7   -0.60    0.74
  11  -8  -7    0.85    1.15
  11  -3  -7    1.88    0.73
  -8  11  -7   -0.76    1.17
   3   8  -7    0.83    1.10
  -3  11  -7    1.05    1.24
 -11   8  -7   -0.23    1.07
   8   3  -7    2.61    1.06
 -11   3  -7    1.04    0.97
  11  -3  -7    2.77    1.41
  -8  -3  -7   -0.36    1.02
  11  -8  -7    0.69    0.99
  -3  -8  -7    0.01    1.13
   8 -11  -7    1.60    1.09
   3 -11  -7    1.61    1.27
   8 -11   8    0.62    1.19
   3 -11   8   -0.76    1.28
  -3  -8   8   -0.14    1.15
  11  -8   8   -0.09    1.14
  -8  -3   8    0.09    1.09
  11  -3   8    0.57    1.24
 -11   3   8    2.05    1.11
   8   3   8    0.16    1.85
 -11   8   8    1.08    1.26
   3   8  -8    0.73    1.21
   8 -11  -8    1.03    1.19
   8   3  -8    1.38    1.26
  11  -8  -8   -1.07    1.28
  11  -3  -8    0.74    1.26
  -3  11  -8    1.85    1.23
   3   8  -8    0.09    0.71
  -8  11  -8    0.08    1.25
   8   3  -8    0.33    1.13
 -11   8  -8   -0.25    1.16
 -11   3  -8    1.49    1.06
  11  -3  -8   -0.28    1.57
  -8  -3  -8    1.00    1.10
  -3  -8  -8    1.01    1.20
   8 -11  -8    1.00    1.18
   3 -11  -8    2.20    1.35
   8 -11   9    0.28    1.29
   3 -11   9    0.67    1.40
  -3  -8   9    1.54    1.28
  -8  -3   9    0.26    1.24
  11  -3   9    1.15    1.46
 -11   3   9   -0.16    1.30
 -11   8   9    0.07    1.50
   8   3   9    0.87    1.58
   3   8   9    0.54    1.42
   3   8  -9    0.55    1.25
   8 -11  -9   -0.12    1.42
   8   3  -9    0.77    1.36
  11  -3  -9    0.55    1.39
  11  -8  -9   -1.11    1.45
  -8  11  -9    1.98    1.35
   3   8  -9   -0.31    1.27
  -3  11  -9    1.58    1.35
   8   3  -9    0.82    1.29
 -11   8  -9    0.58    1.75
 -11   3  -9   -0.23    1.24
  11  -3  -9    1.66    1.37
  -8  -3  -9    1.91    1.24
  11  -8  -9   -0.04    1.23
  -3  -8  -9   -0.71    1.33
   8 -11  -9    0.94    1.29
   3 -11  -9    0.32    1.44
   3 -11  10    1.07    1.49
   8 -11  10    0.47    1.49
  -3  -8  10    0.90    1.43
  11  -8  10   -1.27    1.42
  -8  -3  10    0.01    1.42
  11  -3  10    1.38    1.58
 -11   3  10    0.64    1.50
   8   3  10    1.72    1.78
 -11   8  10    1.85    1.70
  -8  11  10    0.40    1.60
   3   8  10    1.53    1.56
   3   8 -10    1.13    1.35
   8 -11 -10    0.15    1.65
   8   3 -10    0.94    0.93
  11  -8 -10    1.25    1.67
  11  -3 -10    2.10    1.60
  -8  11 -10    1.27    1.49
  -3  11 -10    1.69    0.91
   3   8 -10    0.79    1.48
 -11   8 -10    0.14    1.48
   8   3 -10    0.39    1.51
 -11   3 -10    0.89    1.44
  11  -3 -10    2.85    1.57
  -8  -3 -10   -1.54    1.37
  11  -8 -10   -0.64    1.38
   8 -11 -10   -2.01    1.41
  -3  -8 -10    2.18    1.45
   3 -11 -10    0.20    1.58
   3 -11  11   -1.08    1.59
   8 -11  11   -1.68    0.98
  -3  -8  11    1.10    1.55
  -8  -3  11    0.91    1.55
  11  -8  11    0.39    1.60
  11  -3  11    3.74    1.76
 -11   3  11    2.57    1.62
   8   3  11    1.27    1.86
 -11   8  11    2.43    1.83
   3   8  11   -0.56    1.73
  -8  11  11    0.69    1.72
  -3  11  11   -1.83    1.04
   3   8 -11    0.06    1.48
   8 -11 -11   -0.23    1.84
   8   3 -11    0.04    1.64
  11  -3 -11   -0.33    1.78
  11  -8 -11   -1.21    1.86
  -3  11 -11   -0.65    1.57
  -8  11 -11    2.37    1.64
   3   8 -11   -1.63    1.56
 -11   8 -11    0.85    1.59
   8   3 -11    1.39    1.63
 -11   3 -11    1.49    1.54
  11  -3 -11    1.44    1.70
  -8  -3 -11    0.29    1.49
  11  -8 -11   -1.48    1.46
   8 -11 -11   -3.23    1.49
  -3  -8 -11    1.49    1.51
   3 -11 -11    2.22    1.03
   3 -11  12   -0.02    1.11
   8 -11  12   -1.77    1.77
  -3  -8  12   -2.27    1.75
  11  -8  12   -0.67    1.75
  -8  -3  12   -0.17    1.68
  11  -3  12    1.43    1.94
 -11   3  12    3.65    1.79
   8   3  12    2.39    2.05
 -11   8  12    1.81    1.27
   3   8  12    1.49    1.87
  -8  11  12    0.60    1.92
  -3  11  12   -0.86    1.10
   3   8 -12   -0.40    1.67
   8 -11 -12   -2.67    2.10
   8   3 -12    1.23    1.79
  11  -8 -12   -1.69    2.15
  11  -3 -12    1.62    1.99
  -3  11 -12    0.73    1.71
  -8  11 -12    1.76    1.79
   3   8 -12    3.57    1.72
 -11   8 -12   -0.45    1.76
   8   3 -12    1.84    1.81
 -11   3 -12    1.39    1.68
  11  -3 -12   -1.25    1.90
  -8  -3 -12   -0.32    1.64
  11  -8 -12    0.11    1.58
  -3  -8 -12    0.24    1.71
   3 -11 -12   -1.65    1.79
  -4  -8   0    4.03    0.54
  -8  -4   0    4.98    0.84
  -8  12   0    3.17    0.53
 -12   4   0    5.14    1.09
 -12   8   0    3.39    0.91
   8 -12   0    5.12    0.91
   4 -12   0    7.15    1.01
  -4  -8   0    4.61    0.71
  -8  -4   0    4.73    0.58
  12  -8   0    4.35    0.56
  -4  -8   1    6.69    0.68
  -8  12   1    7.43    0.50
  -8  -4   1    6.11    0.94
 -12   4   1    7.30    1.13
 -12   8   1    6.91    0.98
   8 -12   1    8.62    1.00
   4 -12   1    8.60    1.08
  -4  -8   1    7.91    0.79
  -8  -4   1    8.54    0.56
  12  -8   1    7.10    0.52
  -4  -8  -1    7.32    0.57
  -8  -4  -1    8.60    0.92
 -12   4  -1    7.58    1.26
  -8  12  -1    6.60    0.57
 -12   8  -1    8.32    1.05
   4   8  -1    6.25    0.92
   8   4  -1    6.91    1.01
  -4  -8  -1    8.18    0.80
   8 -12  -1    7.28    0.61
   4 -12  -1    8.69    1.11
  -8  -4  -1    7.01    0.50
  12  -8  -1    6.04    0.58
  -8  -4  -1    7.69    0.54
  12  -8  -1    7.39    0.65
  -8  -4   2    5.54    0.97
 -12   4   2    7.35    1.14
 -12   8   2    6.19    0.94
   8 -12   2    6.44    0.95
   4 -12   2    6.47    0.67
  -4  -8   2    6.07    0.82
  -8  -4   2    6.43    0.78
  12  -8   2    5.75    0.58
  -4  -8  -2    5.90    0.55
   4   8  -2    4.25    1.04
  -8  -4  -2    6.73    0.93
   8   4  -2    4.78    1.06
 -12   4  -2    5.79    1.21
  12  -4  -2    5.14    1.19
 -12   8  -2    6.35    1.10
  12  -8  -2    6.58    0.94
   8   4  -2    4.62    0.54
   4   8  -2    7.26    0.91
  -4  12  -2    7.47    1.20
  -8  12  -2    6.84    1.09
 -12   8  -2    5.53    0.55
  -4  -8  -2    6.38    0.80
   8 -12  -2    5.84    1.01
   4 -12  -2    6.70    1.08
  -8  -4  -2    4.54    0.51
  12  -8  -2    4.84    0.61
  -8  -4  -2    5.78    0.79
  12  -8  -2    5.86    0.73
  -4  -8  -2    6.38    0.88
   8 -12  -2    5.33    0.99
  -8  -4   3    3.90    0.96
 -12   8   3    3.63    0.95
 -12   4   3    4.58    1.16
   4 -12   3    5.25    1.10
   8 -12   3    5.01    1.00
  -4  -8   3    5.81    0.88
  -8  -4   3    4.36    0.65
  12  -8   3    4.20    0.66
  12  -4   3    2.99    0.60
   4   8  -3    3.79    0.89
   8   4  -3    4.62    1.08
  -4  -8  -3    4.08    0.58
  12  -4  -3    4.84    0.71
  -8  -4  -3    5.75    0.96
  12  -8  -3    4.43    0.98
 -12   4  -3    4.35    1.26
  -4  -8  -3    4.46    0.84
   8 -12  -3    4.48    0.98
   4 -12  -3    4.35    1.08
   4   8  -3    5.20    0.93
  -8  12  -3    4.56    1.08
  -4  12  -3    5.34    0.73
   8   4  -3    3.10    0.63
 -12   8  -3    4.49    0.89
 -12   4  -3    2.98    0.47
  12  -4  -3    3.60    0.51
  -8  -4  -3    3.44    0.66
  12  -8  -3    4.07    0.83
  -4  -8  -3    4.63    0.88
   8 -12  -3    5.83    1.05
   4 -12  -3    6.12    1.21
 -12   4   4    3.41    1.13
 -12   8   4    1.94    0.93
   8 -12   4    2.38    0.97
   4 -12   4    2.61    1.10
  -4  -8   4    2.88    0.89
  -8  -4   4    2.04    0.73
  12  -8   4    1.92    1.00
  12  -4   4    2.26    0.93
 -12   4   4    1.85    0.67
   4   8  -4    1.37    1.01
   8   4  -4    1.87    1.10
  12  -4  -4    2.85    0.68
  12  -8  -4    2.97    1.01
   8 -12  -4    1.54    0.55
  -4  -8  -4    1.83    0.63
  -8  -4  -4    3.29    1.02
  -8  12  -4    2.09    1.08
   4   8  -4    2.58    0.94
  -4  12  -4    3.35    0.71
   8   4  -4    2.79    0.71
 -12   8  -4    3.10    0.73
 -12   4  -4    1.57    0.68
  12  -4  -4    2.60    0.75
  -8  -4  -4    2.26    1.00
  12  -8  -4    1.72    0.73
  -4  -8  -4    2.05    0.91
   8 -12  -4    2.01    0.63
   4 -12  -4    4.87    1.21
   4 -12   5   12.07    0.94
   8 -12   5   11.53    1.35
  -4  -8   5   10.54    1.24
  -8  -4   5    7.75    1.11
  12  -8   5    8.45    1.54
  12  -4   5    8.81    1.22
 -12   4   5    8.11    0.94
   4 -12  -5    7.42    0.83
   4   8  -5    9.41    2.09
   8   4  -5   10.95    1.55
   8 -12  -5    8.18    0.80
  12  -4  -5   11.91    0.97
  12  -8  -5   13.02    1.39
  -8  12  -5   11.46    1.48
  -4  12  -5   12.92    1.00
   8   4  -5   11.03    1.15
 -12   8  -5    8.67    1.13
 -12   4  -5    7.47    1.20
  12  -4  -5    8.30    1.02
  12  -8  -5    9.76    1.14
  -8  -4  -5   10.19    1.14
  -4  -8  -5   12.01    1.28
   8 -12  -5   11.75    1.37
   4 -12  -5   12.07    1.60
   4 -12   6    3.27    1.26
   8 -12   6    2.36    1.18
  -4  -8   6    4.45    1.08
  -8  -4   6    2.71    0.99
  12  -8   6    1.97    1.07
  12  -4   6    1.60    1.12
 -12   4   6    1.68    0.91
   4 -12  -6    3.78    0.72
   4   8  -6    2.54    1.44
   8 -12  -6    3.14    1.15
   8   4  -6    1.77    0.81
  12  -8  -6    3.73    1.21
  12  -4  -6    5.18    1.27
   4   8  -6    2.46    1.16
  -8  12  -6    3.19    1.25
  -4  12  -6    2.52    1.32
   8   4  -6    3.51    1.03
 -12   8  -6    3.06    1.00
 -12   4  -6    1.63    1.21
  12  -4  -6    1.82    1.01
  12  -8  -6    1.13    0.99
  -8  -4  -6    1.07    1.03
  -4  -8  -6    3.55    1.13
   8 -12  -6    3.66    1.18
   4 -12  -6    3.16    1.33
   4 -12   7    5.53    1.47
   8 -12   7    4.35    1.33
  -4  -8   7    4.60    1.29
  -8  -4   7    4.57    1.23
  12  -8   7    5.68    1.33
  12  -4   7    3.59    1.42
 -12   4   7    2.12    1.63
   8   4   7    4.72    1.44
 -12   8   7    4.42    1.33
   4   8  -7    6.34    1.61
   8 -12  -7    4.00    1.58
   8   4  -7    4.67    1.51
  12  -4  -7    6.78    1.47
  12  -8  -7    6.53    1.46
  -4  12  -7    6.31    1.51
   4   8  -7    5.75    0.87
  -8  12  -7    6.35    1.46
   8   4  -7    4.35    1.36
 -12   8  -7    3.29    1.27
 -12   4  -7    5.01    1.15
  12  -4  -7    5.39    1.32
  -8  -4  -7    3.31    1.61
  12  -8  -7    3.71    1.22
  -4  -8  -7    5.16    1.34
   8 -12  -7    4.45    1.38
   4 -12  -7    6.42    0.95
   4 -12   8    1.38    1.28
   8 -12   8    0.05    0.74
  -4  -8   8    0.13    1.13
  -8  -4   8    0.32    1.48
  12  -8   8   -0.02    1.16
  12  -4   8   -0.75    1.29
 -12   4   8    0.22    1.13
   8   4   8   -0.59    1.41
 -12   8   8    0.69    1.69
   4   8  -8    0.14    1.30
   8 -12  -8    1.18    1.16
   8   4  -8   -1.56    1.29
  12  -4  -8    0.87    1.27
  12  -8  -8    0.89    1.29
  -8  12  -8   -1.36    1.26
  -4  12  -8   -1.29    1.31
   4   8  -8    1.03    1.19
   8   4  -8    0.25    1.21
 -12   8  -8    0.85    1.14
 -12   4  -8    1.26    1.05
  12  -4  -8    1.31    1.20
  -8  -4  -8   -0.48    1.11
  12  -8  -8    0.04    1.11
  -4  -8  -8    1.26    1.16
   8 -12  -8   -1.30    1.19
   4 -12  -8   -0.45    0.81
   4 -12   9    3.41    1.44
   8 -12   9   -0.20    1.41
  -4  -8   9    0.52    1.37
  12  -8   9   -0.03    1.41
  -8  -4   9    1.26    1.29
  12  -4   9    0.85    2.07
 -12   4   9    3.28    1.39
 -12   8   9    3.00    1.55
   8   4   9    4.03    1.71
   4   8  -9    1.64    1.41
   8 -12  -9    1.70    1.53
   8   4  -9   -0.69    1.49
  12  -8  -9   -0.46    1.54
  12  -4  -9    0.53    1.51
  -8  12  -9    2.34    1.49
  -4  12  -9    0.86    1.48
   4   8  -9    1.49    1.42
   8   4  -9   -0.01    1.44
 -12   8  -9    0.55    1.38
 -12   4  -9    0.20    1.31
  12  -4  -9    2.87    1.49
  12  -8  -9    0.64    1.33
  -8  -4  -9    2.42    1.33
  -4  -8  -9    2.96    1.39
   8 -12  -9    1.32    1.40
   4 -12  -9    0.52    0.96
   4 -12  10    3.06    1.58
   8 -12  10   -0.35    1.52
  -4  -8  10    0.53    1.48
  -8  -4  10   -0.59    1.41
  12  -8  10    0.98    1.56
  12  -4  10    1.28    1.75
 -12   4  10    1.41    1.59
   8   4  10    4.00    1.99
 -12   8  10   -1.04    1.74
   4   8  10    0.43    1.68
   4   8 -10    0.76    1.45
   8 -12 -10    1.04    1.76
   8   4 -10    1.05    1.55
  12  -4 -10    2.16    1.63
  12  -8 -10   -0.05    1.73
  -4  12 -10   -0.14    1.58
   4   8 -10    0.30    1.49
  -8  12 -10    1.49    1.56
   8   4 -10    2.28    1.58
 -12   8 -10   -0.47    2.02
 -12   4 -10    2.40    1.47
  12  -4 -10    3.69    1.62
  -8  -4 -10    1.70    1.43
  12  -8 -10   -1.09    1.43
  -4  -8 -10   -0.25    1.45
   8 -12 -10   -0.25    1.49
   4 -12 -10    1.00    1.61
   4 -12  11    1.07    1.16
   8 -12  11    2.13    1.77
  -4  -8  11    2.50    1.73
  -8  -4  11   -0.70    2.27
  12  -8  11    2.53    1.81
  12  -4  11    0.01    2.02
 -12   4  11    3.01    1.84
   8   4  11    2.55    2.24
 -12   8  11    1.40    2.03
   4   8  11    0.92    1.88
   4   8 -11   -2.04    1.62
   8 -12 -11    2.43    2.09
   8   4 -11    2.30    1.76
  12  -4 -11    2.69    1.94
  12  -8 -11    3.94    2.04
   4   8 -11    1.20    1.73
  -8  12 -11    1.38    1.14
  -4  12 -11    1.23    1.75
   8   4 -11    2.12    1.83
 -12   8 -11    0.14    1.77
 -12   4 -11    4.19    1.72
  12  -4 -11    1.92    1.92
  -8  -4 -11    2.85    1.61
  12  -8 -11    1.57    1.63
  -4  -8 -11    0.88    1.65
   8 -12 -11    1.00    1.71
   4 -12 -11    3.75    1.81
   8 -12  12    1.13    1.84
   4 -12  12   -0.72    1.91
  -4  -8  12    0.97    1.77
  -8  -4  12   -0.26    1.74
  12  -8  12   -0.11    1.89
  12  -4  12    0.45    2.12
 -12   4  12   -0.46    1.95
   8   4  12   -1.50    2.33
 -12   8  12    2.87    2.13
   4   8  12    3.13    1.96
   4   8 -12    2.35    1.70
   8 -12 -12    4.36    2.20
   8   4 -12   -0.23    1.15
  12  -4 -12   -0.85    2.13
  12  -8 -12    0.80    1.34
  -8  12 -12    1.41    1.87
  -4  12 -12    0.78    1.84
   4   8 -12   -0.15    1.86
   8   4 -12    0.11    1.94
 -12   8 -12    0.67    1.87
 -12   4 -12    0.53    1.78
  12  -4 -12    0.88    1.97
  12  -8 -12   -1.43    1.64
  -8  -4 -12    1.54    1.68
  -4  -8 -12   -0.11    1.08
   8 -12 -12    0.81    1.69
   4 -12 -12   -0.58    1.86
  -5  -8   0    5.37    0.66
  -8  -5   0    5.17    0.89
 -13   8   0    7.00    1.08
   8 -13   0    7.15    1.05
  13  -8   0    5.73    0.56
  13  -8   0    6.06    0.54
  -5  -8   1    7.89    1.04
  -8  -5   1    7.04    1.00
 -13   5   1   10.03    1.27
 -13   8   1    8.49    1.11
   5 -13   1    9.12    1.18
   8 -13   1    7.85    0.70
  13  -8   1    8.80    0.70
  -5  -8  -1    7.75    0.65
  -8  -5  -1    8.84    0.95
 -13   8  -1    8.48    1.22
   8   5  -1    6.82    1.05
   5   8  -1    7.04    0.79
   8 -13  -1   10.52    1.14
  -5  -8  -1    8.19    0.79
  -8  -5  -1    7.49    0.57
  13  -8  -1    7.24    0.55
  13  -8  -1    7.55    0.51
  -8  -5   2    1.16    0.81
 -13   5   2    0.57    0.99
 -13   8   2    0.33    0.87
   5 -13   2    0.54    0.59
   8 -13   2    1.21    0.89
  -5  -8   2    1.57    0.69
  -8  -5   2    0.09    0.74
  13  -8   2    0.37    0.65
  -5  -8  -2    1.19    0.51
  -8  -5  -2    0.68    0.76
   8   5  -2    0.41    0.90
 -13   5  -2    1.91    1.09
   5   8  -2   -0.33    0.70
 -13   8  -2    1.10    1.01
  13  -5  -2    0.77    1.01
   5   8  -2    0.14    0.74
   5 -13  -2    0.88    0.61
  -8  -5  -2    0.35    0.46
   8 -13  -2    0.68    0.57
  -5  -8  -2    0.01    0.66
  13  -8  -2    0.46    0.44
  13  -8  -2    0.23    0.60
  -8  -5  -2    0.41    0.70
  -5  -8  -2    1.06    0.73
   8 -13  -2   -0.09    0.93
  -8  -5   3    1.85    0.91
 -13   8   3    2.96    0.95
 -13   5   3    3.17    1.09
   5 -13   3    3.38    1.09
   8 -13   3    2.58    0.98
  -5  -8   3    1.29    0.80
  -8  -5   3    1.99    0.89
  13  -8   3    1.48    0.85
  13  -5   3    1.88    0.62
   5   8  -3    0.53    0.88
   8   5  -3    1.59    1.04
  -5  -8  -3    1.74    0.78
  -8  -5  -3    3.34    0.86
 -13   5  -3    2.84    1.25
  13  -5  -3    2.84    1.09
  13  -8  -3    1.62    0.63
 -13   8  -3    3.56    1.14
  -8  -5  -3    1.85    0.55
   5 -13  -3    1.72    1.07
   8 -13  -3    2.69    1.01
  13  -8  -3    1.13    0.42
  -5  -8  -3    0.96    0.77
  -5  13  -3    2.89    1.14
   8   5  -3    1.64    0.63
  -8  13  -3   -0.03    1.07
 -13   8  -3    1.71    0.72
   5   8  -3    0.50    0.84
 -13   5  -3    0.86    0.37
  13  -5  -3    1.10    0.48
  13  -8  -3    1.95    0.60
  -8  -5  -3    2.05    0.65
  -5  -8  -3    2.19    0.79
   5 -13  -3    2.42    1.18
   8 -13  -3    2.25    1.02
 -13   5   4   -0.22    1.10
 -13   8   4    0.03    0.95
   5 -13   4    1.74    1.06
   8 -13   4   -0.51    1.00
  -5  -8   4    0.33    0.83
  -8  -5   4    1.53    0.70
  13  -8   4    0.47    0.99
  13  -5   4   -1.13    0.93
   5   8  -4    1.84    1.33
   8   5  -4    0.72    1.08
  13  -5  -4    1.18    1.07
  13  -8  -4    1.16    1.00
  -8  -5  -4    1.41    0.92
   8 -13  -4    0.23    0.37
  -5  -8  -4   -0.07    0.64
  -5  13  -4    1.11    1.10
  -8  13  -4    1.83    1.07
   8   5  -4    0.82    0.70
   5   8  -4    0.96    0.88
 -13   8  -4    0.79    0.88
 -13   5  -4   -0.26    0.62
  13  -5  -4    0.87    0.73
  13  -8  -4    0.28    0.68
  -8  -5  -4    0.57    0.72
  -5  -8  -4   -0.16    0.82
   8 -13  -4    1.17    1.00
   5 -13  -4    0.54    1.18
 -13   5   5    7.40    0.82
   5 -13   5    4.46    1.36
   8 -13   5    5.27    1.25
  -5  -8   5    5.58    1.12
  -8  -5   5    6.52    1.01
  13  -8   5    6.23    1.43
  13  -5   5    5.75    1.45
 -13   5   5    5.14    0.81
   5   8  -5    6.21    1.87
   8   5  -5    6.78    1.44
   8 -13  -5    3.78    0.68
  13  -5  -5    7.04    1.37
  13  -8  -5    6.45    1.32
  -5  13  -5    6.25    1.44
  -8  13  -5    5.20    1.35
   5   8  -5    6.75    1.19
   8   5  -5    5.31    1.03
 -13   8  -5    5.40    0.96
 -13   5  -5    4.51    1.04
  13  -5  -5    5.28    1.25
  13  -8  -5    3.47    0.99
  -8  -5  -5    4.92    1.01
  -5  -8  -5    4.62    1.09
   5 -13  -5    6.99    1.43
   8 -13  -5    4.38    0.80
   5 -13   6    2.03    0.76
   8 -13   6    1.03    1.14
  -5  -8   6    1.54    1.04
  -8  -5   6    1.69    0.98
  13  -8   6   -0.47    1.08
  13  -5   6    0.04    1.24
 -13   5   6    1.25    0.89
   5 -13  -6    0.59    0.70
   5   8  -6    2.37    1.42
   8   5  -6    1.98    1.33
   8 -13  -6    1.85    0.85
  13  -5  -6    1.72    0.75
  13  -8  -6    0.29    1.21
  -5  13  -6    1.97    1.33
  -8  13  -6    1.27    1.27
   5   8  -6    0.99    1.13
   8   5  -6    1.24    1.05
 -13   8  -6    1.37    0.93
 -13   5  -6    1.34    0.81
  13  -5  -6    1.82    1.35
  13  -8  -6    0.60    0.97
  -8  -5  -6    1.16    0.96
  -5  -8  -6    0.86    1.07
   5 -13  -6    0.65    1.33
   8 -13  -6    2.13    1.19
   5 -13   7    4.11    0.86
   8 -13   7    4.21    1.31
  -5  -8   7    2.72    1.20
  -8  -5   7    2.16    1.18
  13  -8   7    2.90    1.30
  13  -5   7    1.79    1.33
 -13   5   7    2.60    1.15
   5 -13  -7    2.51    1.23
   5   8  -7    3.40    1.61
   8   5  -7    3.79    1.50
   8 -13  -7    1.91    1.03
  13  -5  -7    2.72    1.42
  13  -8  -7    1.89    1.43
  -5  13  -7    3.65    1.46
  -8  13  -7    2.52    1.42
   8   5  -7    1.91    1.27
   5   8  -7    2.46    1.34
 -13   8  -7    2.04    1.21
 -13   5  -7    0.96    1.41
  13  -5  -7    3.94    1.71
  13  -8  -7    2.65    1.20
  -8  -5  -7    2.58    1.19
  -5  -8  -7    4.02    1.22
   5 -13  -7    5.33    1.47
   8 -13  -7    3.34    1.32
   5 -13   8    0.96    0.81
   8 -13   8    0.32    1.26
  -5  -8   8    0.50    1.15
  -8  -5   8   -1.73    1.15
  13  -8   8    1.98    1.24
  13  -5   8   -0.01    1.33
 -13   5   8    0.04    1.55
 -13   8   8   -0.53    1.29
   5 -13  -8    1.88    1.40
   5   8  -8   -1.52    1.49
   8   5  -8   -1.94    1.36
   8 -13  -8    0.52    1.13
  13  -5  -8   -0.85    1.38
  13  -8  -8   -2.64    1.38
  -5  13  -8   -1.01    1.34
  -8  13  -8    1.04    1.36
   5   8  -8    0.67    1.27
   8   5  -8    0.83    1.26
 -13   8  -8   -0.05    1.18
 -13   5  -8   -0.32    1.08
  13  -5  -8    1.00    1.32
  13  -8  -8   -0.81    1.13
  -8  -5  -8    0.24    1.11
  -5  -8  -8    0.17    0.73
   5 -13  -8    2.85    1.43
   8 -13  -8   -0.10    1.28
   5 -13   9    0.13    0.95
   8 -13   9   -0.65    1.41
  -5  -8   9    2.51    1.37
  -8  -5   9    2.23    1.35
  13  -8   9    0.11    1.52
  13  -5   9    2.35    1.57
 -13   5   9    0.14    1.43
 -13   8   9    0.18    1.57
   8   5   9    1.81    1.76
   5 -13  -9    0.09    1.31
   8 -13  -9   -1.57    1.49
   5   8  -9    1.07    1.53
   8   5  -9    1.13    1.52
  13  -5  -9   -1.21    1.56
  13  -8  -9    2.59    1.59
  -8  13  -9    2.35    1.50
  -5  13  -9    0.59    1.53
   5   8  -9    1.67    1.49
   8   5  -9    2.26    1.54
 -13   8  -9    1.25    1.41
 -13   5  -9    1.76    1.33
  13  -5  -9    1.65    1.56
  13  -8  -9    0.44    1.35
  -8  -5  -9    1.27    1.31
  -5  -8  -9   -0.49    1.35
   5 -13  -9   -0.55    1.56
   8 -13  -9    1.36    1.43
   5 -13  10    0.20    0.95
   8 -13  10    0.69    1.48
  -5  -8  10   -0.40    1.44
  -8  -5  10   -0.24    1.39
  13  -8  10   -0.62    1.60
  13  -5  10    0.99    2.33
 -13   5  10    2.89    1.52
   8   5  10   -2.12    1.99
 -13   8  10    1.82    1.67
   5 -13 -10   -0.81    1.44
   8 -13 -10    1.32    1.66
   5   8 -10   -0.12    1.49
   8   5 -10   -1.60    1.53
  13  -5 -10    1.40    1.68
  13  -8 -10   -0.78    1.72
  -8  13 -10   -0.69    1.56
  -5  13 -10    0.06    1.58
   5   8 -10   -1.16    1.53
   8   5 -10   -0.09    1.63
 -13   8 -10   -2.71    1.49
 -13   5 -10    0.19    1.45
  13  -5 -10    2.07    1.62
  13  -8 -10    0.15    1.40
  -8  -5 -10   -0.28    1.39
  -5  -8 -10    0.11    1.38
   5 -13 -10    0.86    1.57
   8 -13 -10    0.85    1.47
   5 -13  11    1.55    1.81
   8 -13  11   -2.15    1.79
  -5  -8  11   -0.54    1.76
  -8  -5  11    0.73    1.70
  13  -8  11    1.04    1.89
  13  -5  11    1.60    2.13
 -13   5  11    1.84    1.90
   8   5  11   -0.62    2.36
 -13   8  11    1.66    1.99
   5 -13 -11   -0.27    1.86
   5   8 -11    2.27    1.67
   8   5 -11    1.61    1.76
   8 -13 -11    1.09    2.11
  13  -5 -11    4.11    2.01
  13  -8 -11    2.68    2.08
  -5  13 -11    0.82    1.81
  -8  13 -11    2.10    1.87
   5   8 -11    1.43    1.12
   8   5 -11    5.35    1.94
 -13   8 -11    2.10    1.81
 -13   5 -11    1.15    1.77
  13  -5 -11    1.37    1.91
  13  -8 -11    0.02    1.62
  -8  -5 -11   -0.85    1.66
  -5  -8 -11    2.78    1.62
   8 -13 -11    1.62    1.75
   5 -13 -11   -1.21    1.82
  -6  -8   0    6.06    0.78
  -8  -6   0    6.90    1.24
 -14   8   0    6.16    1.25
   8 -14   0    8.10    1.19
  -6  -8   0    7.87    0.79
  14  -8   0    7.93    0.60
  14  -8   0    6.90    0.51
  -6  -8   1    0.48    0.68
  -8  -6   1    1.52    0.81
 -14   8   1    3.78    0.99
   8 -14   1   -0.16    0.97
  -6  -8   1    2.18    0.66
  14  -8   1    0.73    0.54
  -6  -8  -1    1.42    0.58
  -8  -6  -1    1.26    0.74
  -8  14  -1    0.50    0.30
 -14   8  -1    1.09    1.09
 -14   6  -1    1.68    1.20
  -6  -8  -1    0.97    0.64
  14  -8  -1    0.84    0.38
  14  -8  -1    0.87    0.51
  -6  -8  -1    1.00    0.67
  -8  -6   2    1.46    0.87
 -14   6   2    2.82    1.07
 -14   8   2    1.87    0.99
   8 -14   2    2.32    1.00
   6 -14   2    0.62    1.04
  -6  -8   2    0.33    0.71
  -8  -6   2    1.31    0.66
  14  -8   2    1.39    0.70
  -6  -8  -2    1.90    0.82
  -8  -6  -2    1.23    0.77
 -14   8  -2    1.58    0.71
 -14   6  -2    0.15    1.24
   8   6  -2    0.32    0.96
   6   8  -2    0.55    0.80
  -8  14  -2    1.18    0.68
  -6  14  -2    1.11    0.72
   8 -14  -2    1.41    1.06
  -8  -6  -2    1.98    0.71
  -6  -8  -2    0.16    0.66
  14  -8  -2    1.29    0.65
  -8  -6  -2    0.79    0.58
  -6  -8  -2    1.21    0.98
   8 -14  -2    1.12    0.70
 -14   8   3    0.41    0.98
 -14   6   3    0.93    1.07
   6 -14   3    1.90    1.04
   8 -14   3   -0.16    0.98
  -6  -8   3    0.43    0.78
  -8  -6   3   -0.61    0.68
  14  -8   3    1.22    0.86
  14  -6   3    0.30    0.63
  -8  -6  -3    1.01    0.79
  -6  -8  -3    0.10    0.61
   6   8  -3    0.99    0.89
   8   6  -3    0.85    1.01
  14  -6  -3    1.81    1.10
 -14   8  -3    0.12    1.19
 -14   6  -3    1.40    1.24
  14  -8  -3   -0.24    1.03
  -8  -6  -3   -0.01    0.56
   8   6  -3    1.40    0.85
  -8  14  -3    0.00    1.08
   8 -14  -3    0.37    1.05
 -14   6  -3   -0.24    0.31
 -14   8  -3   -0.08    0.56
  -6  -8  -3   -0.14    0.69
   6   8  -3    0.05    0.96
   6 -14  -3    1.60    1.05
  -6  14  -3    0.69    1.13
  14  -6  -3   -0.10    0.24
  14  -8  -3    0.16    0.43
  14  -8  -3    0.86    0.79
  -8  -6  -3    0.40    0.62
  -6  -8  -3    0.97    0.72
   8 -14  -3    1.58    1.06
   6 -14  -3    0.90    1.17
 -14   8   4    3.04    1.10
 -14   6   4    2.35    1.22
   6 -14   4    3.39    1.20
   8 -14   4    2.62    1.14
  -6  -8   4    1.36    0.92
  -8  -6   4    1.82    0.82
  14  -8   4    3.04    1.15
  14  -6   4    1.59    1.05
   8   6  -4    0.98    1.22
   6   8  -4    1.38    1.14
  -8  -6  -4    1.94    0.94
  14  -8  -4    1.84    1.14
  -6  -8  -4    2.04    1.00
  14  -6  -4    1.49    1.21
 -14   6  -4    1.20    1.44
   8 -14  -4    2.27    1.14
   6 -14  -4    1.72    1.19
   6   8  -4    2.36    0.97
   8   6  -4    1.92    0.82
  -8  14  -4    1.77    1.26
  -6  14  -4    1.85    0.79
 -14   8  -4    2.81    0.68
 -14   6  -4    1.32    0.66
  14  -6  -4    1.28    0.86
  14  -8  -4    1.06    1.04
  -8  -6  -4    1.84    0.81
  -6  -8  -4    1.20    0.88
   8 -14  -4    3.29    1.17
   6 -14  -4    2.95    1.30
 -14   6   5    2.62    1.25
   8 -14   5    3.31    0.76
   6 -14   5    2.85    1.30
  -6  -8   5    2.64    1.02
  -8  -6   5    2.57    1.28
  14  -8   5    2.23    1.41
  14  -6   5    3.18    1.01
   6   8  -5    3.15    1.41
   8   6  -5    1.20    1.39
  14  -8  -5    3.41    1.27
  14  -6  -5    3.78    1.29
   8 -14  -5    1.28    0.43
  -8  -6  -5    0.13    1.15
  -6  -8  -5    3.20    0.92
  -8  14  -5    2.36    0.84
  -6  14  -5    3.33    1.39
   6   8  -5    4.06    1.12
   8   6  -5    2.42    1.02
 -14   8  -5    1.55    1.14
 -14   6  -5    2.43    0.73
  14  -6  -5    1.72    0.95
  14  -8  -5    1.84    1.28
  -8  -6  -5    3.75    0.97
  -6  -8  -5    2.10    1.00
   8 -14  -5    2.52    1.29
   6 -14  -5    3.84    1.33
   8 -14   6    2.49    1.24
   6 -14   6    1.15    1.35
  -6  -8   6    3.51    1.04
  -8  -6   6   -0.38    1.03
  14  -8   6    1.44    1.16
  14  -6   6    0.65    1.14
   6   8  -6    2.73    1.55
   8   6  -6    0.17    1.50
   6 -14  -6    0.64    0.47
   8 -14  -6    1.66    0.63
  14  -6  -6    2.35    1.32
  14  -8  -6    0.31    1.32
  -8  14  -6    1.44    1.36
   6   8  -6    2.49    1.18
  -6  14  -6    1.88    1.38
   8   6  -6    1.99    1.13
 -14   8  -6    0.77    0.95
 -14   6  -6    1.32    0.88
  14  -6  -6    2.10    1.12
  14  -8  -6    1.36    1.07
  -8  -6  -6    1.06    1.04
  -6  -8  -6    1.65    1.05
   8 -14  -6    0.22    1.31
   6 -14  -6    3.16    1.37
   8 -14   7   -0.46    1.31
   6 -14   7    0.13    1.34
  -6  -8   7    1.09    1.14
  -8  -6   7    0.83    1.14
  14  -8   7    0.81    1.26
  14  -6   7   -0.08    1.73
 -14   6   7    0.18    1.49
   6   8  -7    1.01    1.64
   6 -14  -7    1.09    0.81
   8   6  -7    1.08    1.54
   8 -14  -7    1.14    0.70
  14  -6  -7    2.60    0.83
  14  -8  -7    1.33    1.38
  -8  14  -7    0.92    1.42
  -6  14  -7    1.53    1.44
   6   8  -7   -0.96    1.28
   8   6  -7    1.82    1.27
 -14   8  -7   -0.82    1.47
 -14   6  -7    0.87    1.01
  14  -6  -7    0.95    1.31
  14  -8  -7    0.03    1.74
  -8  -6  -7    0.58    1.15
  -6  -8  -7    1.01    1.13
   8 -14  -7   -0.43    1.30
   6 -14  -7    1.94    1.41
   8 -14   8    0.64    1.34
   6 -14   8    1.11    1.38
  -6  -8   8   -1.74    1.21
  -8  -6   8    1.96    1.22
  14  -8   8    1.98    1.43
  14  -6   8    1.56    1.42
 -14   6   8   -0.13    1.30
 -14   8   8    1.94    1.31
   6 -14  -8   -0.68    1.18
   8 -14  -8    0.35    0.92
   6   8  -8   -0.34    1.68
   8   6  -8    0.64    1.55
  14  -6  -8    0.10    1.46
  14  -8  -8   -0.10    1.48
  -8  14  -8    0.19    1.47
  -6  14  -8   -0.77    1.46
   8   6  -8    0.60    1.43
   6   8  -8    0.29    1.40
 -14   8  -8    0.98    1.25
 -14   6  -8    1.70    1.51
  14  -6  -8    0.24    1.92
  14  -8  -8   -0.68    1.25
  -8  -6  -8    0.52    1.16
  -6  -8  -8    0.84    1.22
   8 -14  -8   -1.11    1.41
   6 -14  -8    0.80    1.45
   8 -14   9    0.38    1.48
   6 -14   9   -1.38    1.57
  -6  -8   9    2.11    1.37
  -8  -6   9    0.11    1.40
  14  -8   9   -1.95    1.66
  14  -6   9    1.14    1.70
 -14   6   9    1.98    2.07
 -14   8   9    1.03    1.58
   6 -14  -9    0.57    1.35
   8   6  -9   -1.02    1.62
   8 -14  -9   -1.02    1.42
   6   8  -9    1.17    1.68
  14  -8  -9   -0.70    1.71
  14  -6  -9    1.53    1.04
  -8  14  -9    1.04    1.59
  -6  14  -9   -0.38    0.99
   6   8  -9    2.25    0.96
   8   6  -9    2.31    1.64
 -14   8  -9   -0.71    1.45
 -14   6  -9   -0.40    1.35
  14  -6  -9    2.47    1.63
  14  -8  -9    0.83    1.44
  -8  -6  -9    1.06    1.31
  -6  -8  -9    0.49    1.36
   8 -14  -9    0.72    1.52
   6 -14  -9   -0.06    1.59
   8 -14  10    1.13    0.99
   6 -14  10    0.27    1.68
  -6  -8  10   -0.01    1.49
  -8  -6  10    2.82    1.49
  14  -8  10   -0.04    1.80
  14  -6  10    0.98    1.93
 -14   6  10    0.77    1.77
 -14   8  10    0.81    2.40
   6 -14 -10    0.59    2.16
   8 -14 -10    1.04    1.74
   6   8 -10   -1.28    1.69
   8   6 -10   -0.52    1.03
  14  -8 -10    1.93    1.89
  14  -6 -10    2.01    1.82
  -6  14 -10   -0.06    1.69
  -8  14 -10   -0.14    1.73
   6   8 -10    1.35    1.71
   8   6 -10   -0.47    1.76
 -14   8 -10   -1.01    1.61
 -14   6 -10    0.85    1.52
  14  -6 -10    1.61    1.74
  14  -8 -10   -0.38    1.52
  -8  -6 -10   -1.17    1.43
  -6  -8 -10   -0.76    1.42
   8 -14 -10    0.86    1.62
   6 -14 -10   -0.47    1.65
   8 -14  11    0.53    1.82
   6 -14  11    1.25    1.86
  -6  -8  11    3.61    1.72
  -8  -6  11   -1.97    1.69
  14  -8  11    4.98    2.06
  14  -6  11    0.18    2.28
 -14   6  11    2.55    2.05
 -14   8  11    1.00    2.09
   6 -14 -11   -0.76    2.01
   8 -14 -11    0.18    2.84
   6   8 -11    2.77    1.75
   8   6 -11    1.09    1.73
  14  -6 -11   -1.87    2.07
  14  -8 -11    0.41    2.14
  -8  14 -11    2.52    1.90
  -6  14 -11   -0.26    1.90
   8   6 -11   -0.33    2.00
   6   8 -11   -0.08    1.90
 -14   8 -11   -1.27    1.82
 -14   6 -11   -0.76    1.80
  14  -6 -11    2.54    1.97
  14  -8 -11    1.31    1.73
  -8  -6 -11   -1.04    1.64
  -6  -8 -11    1.06    1.64
   8 -14 -11    0.87    1.79
   6 -14 -11    0.26    1.86
  -8  -7   0   12.96    1.14
  -7  -8   0   11.42    1.03
 -15   8   0   15.95    1.68
 -15   7   0   19.33    1.79
   8 -15   0   13.90    0.97
  -7  -8   1   13.08    1.15
 -15   8   1   15.98    1.06
 -15   7   1   15.69    1.07
  -8  -7   1   15.84    0.96
  15  -8   1   17.35    0.81
  -7  -8  -1   15.33    1.02
  -8  -7  -1   17.49    1.16
 -15   7  -1   16.04    1.87
 -15   8  -1   17.32    1.80
  -7  -8  -1   14.60    0.98
  -7  -8  -1   18.81    1.45
  -8  -7   2    5.40    1.06
 -15   7   2    6.07    1.39
 -15   8   2    7.09    1.35
  -8  -7   2    7.04    0.85
  -7  -8   2    6.85    0.91
  15  -8   2    6.98    0.83
  -8  -7  -2    6.16    0.96
  -7  -8  -2    8.87    0.85
 -15   7  -2    5.72    1.62
 -15   8  -2    6.31    1.55
   8   7  -2    5.73    1.20
   7   8  -2    5.23    1.08
  -7  -8  -2    7.21    0.83
  -8  -7  -2    5.84    0.74
  15  -8  -2    6.84    0.81
  -8  -7  -2    6.59    0.78
  -7  -8  -2    7.03    0.86
   7 -15  -2    8.55    0.95
 -15   8   3   12.93    1.54
 -15   7   3   14.56    1.60
   7 -15   3   13.55    1.61
   8 -15   3   15.43    1.56
  -7  -8   3   11.29    1.15
  -8  -7   3   11.29    1.47
  15  -8   3   11.75    1.28
  15  -7   3    9.72    1.14
  -8  -7  -3   10.95    1.15
  -7  -8  -3   11.96    1.02
   8   7  -3   12.28    1.97
   7   8  -3    9.58    1.40
 -15   7  -3   16.32    1.87
 -15   8  -3   15.44    1.86
  15  -7  -3   13.98    1.64
  15  -8  -3   13.64    1.57
   8   7  -3   10.20    1.07
   7   8  -3   10.83    1.19
  -7  15  -3   14.25    1.76
  -8  15  -3   14.24    1.71
  -8  -7  -3   10.22    1.22
   8 -15  -3   14.56    1.61
  -7  -8  -3   10.40    1.03
   7 -15  -3   13.24    1.64
  15  -8  -3   12.93    1.30
  -8  -7  -3   10.46    0.98
  -7  -8  -3   10.84    1.38
   8 -15  -3   15.13    1.66
   7 -15  -3   14.79    1.73
 -15   7   4    4.57    1.33
 -15   8   4    3.68    1.27
   8 -15   4    2.40    1.30
   7 -15   4    4.61    1.31
  -7  -8   4    2.65    0.98
  -8  -7   4    3.97    0.94
  15  -8   4    1.02    1.17
  15  -7   4    3.69    1.23
   8   7  -4    2.10    1.37
  -7  -8  -4    3.33    0.90
   7   8  -4    2.03    1.31
  -8  -7  -4    4.04    1.00
 -15   7  -4    5.09    1.63
  15  -7  -4    4.78    1.36
 -15   8  -4    3.26    1.59
  15  -8  -4    3.80    1.34
  -8  -7  -4    2.56    0.81
   8 -15  -4    3.35    1.34
  -7  -8  -4    2.90    0.90
   7 -15  -4    3.05    1.35
   8   7  -4    3.35    0.97
  -8  15  -4    5.03    1.43
 -15   8  -4    2.30    0.77
  -7  15  -4    2.70    1.44
   7   8  -4    3.35    1.06
 -15   7  -4    2.28    0.63
  15  -7  -4    3.06    1.05
  15  -8  -4    2.41    0.95
  -8  -7  -4    2.02    0.85
  -7  -8  -4    3.70    0.90
   8 -15  -4    5.88    1.39
   7 -15  -4    4.61    1.47
 -15   7   5   18.55    1.78
 -15   8   5   14.26    1.13
   8 -15   5   16.82    1.88
   7 -15   5   17.23    1.88
  -7  -8   5   13.37    1.51
  -8  -7   5   12.63    1.49
  15  -8   5   10.63    1.62
  15  -7   5   11.91    2.04
   8   7  -5   15.56    1.43
   7   8  -5   17.01    2.09
  15  -7  -5   16.71    1.91
  15  -8  -5   17.80    1.27
  -8  -7  -5   16.47    1.60
  -7  -8  -5   13.72    1.47
   8 -15  -5   17.88    1.24
   7 -15  -5   15.86    1.89
  -8  15  -5   19.69    2.00
  -7  15  -5   18.14    2.01
   7   8  -5   14.80    1.68
   8   7  -5   15.04    1.61
 -15   8  -5   11.03    1.68
 -15   7  -5   10.28    1.48
  15  -7  -5   12.13    2.04
  15  -8  -5   11.80    2.09
  -8  -7  -5   10.97    1.42
  -7  -8  -5   13.04    1.46
   8 -15  -5   20.62    1.93
   7 -15  -5   17.31    1.96
   8 -15   6    2.47    0.86
   7 -15   6    4.66    1.41
  -7  -8   6    1.69    1.16
  -8  -7   6    1.77    1.11
  15  -8   6    2.41    1.72
  15  -7   6    3.32    1.24
   8   7  -6    1.89    1.71
   7   8  -6    1.40    1.73
  15  -8  -6    2.25    1.46
  15  -7  -6    1.80    1.47
  -8  -7  -6    1.42    1.27
  -7  -8  -6    3.82    1.16
  -8  15  -6    2.32    1.50
  -7  15  -6    2.15    0.94
   8   7  -6    2.15    1.29
   7   8  -6    4.23    1.32
 -15   7  -6    1.46    1.24
 -15   8  -6    1.25    1.03
  15  -7  -6    1.57    1.69
  15  -8  -6    1.22    1.22
  -8  -7  -6    3.97    1.09
  -7  -8  -6    2.42    1.10
   8 -15  -6    0.70    1.45
   7 -15  -6    2.25    1.49
   8 -15   7    4.30    1.01
   7 -15   7    6.75    1.63
  -7  -8   7    2.15    1.37
  -8  -7   7    4.97    1.36
  15  -8   7    2.65    1.68
  15  -7   7    1.07    1.58
   7   8  -7    7.02    2.07
   8   7  -7    6.20    1.97
   8 -15  -7    2.50    0.76
  15  -7  -7    5.63    1.70
  15  -8  -7    5.20    1.69
  -8  15  -7    6.43    1.73
   7   8  -7    5.78    1.64
  -7  15  -7    5.03    1.73
   8   7  -7    4.50    1.61
 -15   7  -7    3.24    1.61
 -15   8  -7    4.44    1.28
  15  -7  -7    4.32    1.61
  15  -8  -7    6.22    1.99
  -8  -7  -7    2.37    1.33
  -7  -8  -7    4.42    1.35
   8 -15  -7    5.33    1.59
   7 -15  -7    7.30    1.69
   8 -15   8    0.48    1.45
   7 -15   8    1.73    1.48
  -7  -8   8    0.81    1.31
  -8  -7   8    0.47    1.31
  15  -8   8   -0.04    1.59
  15  -7   8   -0.37    2.09
 -15   7   8    0.29    1.32
   8   7  -8    0.84    1.79
   8 -15  -8   -0.83    0.72
   7   8  -8    1.41    1.85
   7 -15  -8    0.47    0.88
  15  -7  -8    3.07    1.55
  15  -8  -8    0.07    1.58
  -8  15  -8    2.31    1.54
  -7  15  -8    1.49    1.57
   8   7  -8    0.22    1.57
   7   8  -8    1.64    1.55
 -15   8  -8    0.95    1.27
 -15   7  -8    1.48    1.65
  15  -7  -8    2.29    1.52
  15  -8  -8    0.78    1.42
  -7  -8  -8   -0.16    1.28
  -8  -7  -8    0.25    1.30
   8 -15  -8    0.05    1.50
   7 -15  -8    1.23    1.57
   8 -15   9    2.25    1.68
   7 -15   9   -1.20    1.72
  -8  -7   9    1.02    1.53
  -7  -8   9   -0.14    1.57
  15  -8   9    1.11    1.96
  15  -7   9    2.37    1.99
 -15   7   9    2.82    1.72
 -15   8   9    3.15    1.72
   7   8  -9    4.14    1.99
   7 -15  -9    0.77    1.33
   8   7  -9    0.60    1.92
   8 -15  -9    1.66    1.06
  15  -7  -9    2.61    1.81
  15  -8  -9    3.82    1.85
  -7  15  -9    1.99    1.75
  -8  15  -9    1.20    1.84
   7   8  -9    4.50    1.85
   8   7  -9   -0.85    1.88
 -15   7  -9    2.63    1.55
 -15   8  -9    2.98    1.61
  15  -7  -9    2.55    2.39
  15  -8  -9    0.27    2.20
  -8  -7  -9    0.64    1.44
  -7  -8  -9    1.33    1.52
   8 -15  -9    2.32    1.73
   7 -15  -9    2.34    1.75
   8 -15  10   -0.67    1.70
   7 -15  10    0.06    1.74
  -7  -8  10   -1.13    1.57
  -8  -7  10    3.45    1.59
  15  -8  10    1.79    2.05
  15  -7  10    1.89    2.15
 -15   7  10   -0.04    1.84
 -15   8  10   -1.06    1.91
   7   8 -10    0.06    1.86
   8   7 -10   -1.16    1.84
   8 -15 -10    0.11    1.67
  15  -7 -10    1.25    1.96
  15  -8 -10   -1.87    1.97
  -8  15 -10   -1.07    1.76
  -7  15 -10   -1.50    1.80
   8   7 -10    1.87    1.95
   7   8 -10    4.22    1.89
 -15   8 -10    0.84    2.22
 -15   7 -10    1.96    1.60
  15  -7 -10    0.31    1.81
  15  -8 -10   -0.71    1.66
  -8  -7 -10    0.09    1.51
  -7  -8 -10    1.39    1.50
   8 -15 -10    0.75    1.71
   7 -15 -10    0.24    1.78
  -8  -8   0   11.51    1.13
 -16   8   0   15.25    1.13
  -8  -8   1   11.02    1.15
 -16   8   1   13.19    1.63
  -8  -8   1   13.71    0.99
  -8  -8  -1   16.71    1.42
 -16   8  -1   15.12    1.15
  -8  -8   2    1.98    0.85
 -16   8   2    1.25    1.21
  -8  -8   2    1.61    0.74
  -8  -8  -2    1.05    0.74
 -16   8  -2    1.30    1.37
   8   8  -2    1.29    0.96
  -8  -8  -2    2.15    0.89
  -8  -8  -2    1.07    0.69
   8 -16  -2    3.17    1.35
 -16   8   3    6.88    1.34
   8 -16   3    4.30    1.34
  -8  -8   3    4.56    0.94
  16  -8   3    4.20    0.97
  -8  -8  -3    3.45    0.90
 -16   8  -3    6.42    1.00
   8   8  -3    3.62    1.22
  -8  16  -3    7.21    1.51
   8 -16  -3    4.03    1.41
  -8  -8  -3    3.78    0.79
  16  -8  -3    3.33    0.78
  -8  -8  -3    3.37    0.81
   8 -16  -3    4.08    1.51
 -16   8   4    1.88    1.34
   8 -16   4    3.42    1.36
  -8  -8   4    2.45    1.34
  16  -8   4    4.06    1.27
   8   8  -4    3.33    1.35
  -8  -8  -4    3.75    0.95
 -16   8  -4    6.21    1.68
  16  -8  -4    3.19    1.41
  -8  -8  -4    2.45    0.86
   8   8  -4    2.78    1.03
  -8  16  -4    2.14    1.50
   8 -16  -4    3.52    1.42
 -16   8  -4    1.87    0.59
  16  -8  -4    2.51    1.17
  -8  -8  -4    1.74    0.87
   8 -16  -4    3.59    1.48
 -16   8   5    4.25    1.41
   8 -16   5    3.41    1.53
  -8  -8   5    5.28    1.18
  16  -8   5    5.07    1.61
   8   8  -5    4.61    1.73
  -8  -8  -5    6.15    1.17
  16  -8  -5    6.95    1.56
 -16   8  -5    6.30    1.90
  -8  -8  -5    3.55    1.08
   8 -16  -5    6.95    1.57
   8   8  -5    4.28    1.68
  -8  16  -5    7.39    1.67
 -16   8  -5    2.95    0.97
  16  -8  -5    3.09    1.66
  -8  -8  -5    3.14    1.45
   8 -16  -5    6.37    1.56
   8 -16   6    1.49    1.50
  -8  -8   6    4.16    1.18
  16  -8   6    1.72    1.66
   8   8  -6    3.88    1.84
  16  -8  -6    1.24    1.56
  -8  -8  -6    2.68    1.25
   8   8  -6    1.15    1.87
  -8  16  -6    2.24    1.60
 -16   8  -6    2.00    1.01
  16  -8  -6    1.60    1.75
  -8  -8  -6    2.33    1.48
   8 -16  -6    2.17    1.55
   8 -16   7    2.88    1.61
  -8  -8   7    1.91    1.33
  16  -8   7    1.98    1.62
   8   8  -7    3.45    2.18
  16  -8  -7    4.14    1.71
  -8  -8  -7    5.00    1.53
  -8  16  -7    5.20    1.71
   8   8  -7    3.62    1.64
 -16   8  -7    3.09    1.63
  16  -8  -7    2.01    1.56
  -8  -8  -7    0.84    1.69
   8 -16  -7    3.73    1.62
   8 -16   8    2.49    1.67
  -8  -8   8    1.96    1.44
  16  -8   8    0.86    1.90
   8   8  -8    1.20    2.20
  16  -8  -8    1.87    1.81
   8   8  -8    0.99    1.86
  -8  16  -8    2.55    1.80
 -16   8  -8    2.37    1.39
  16  -8  -8    4.55    1.63
  -8  -8  -8    0.84    1.35
   8 -16  -8    0.78    1.68
   8 -16   9    2.30    1.76
  -8  -8   9   -0.13    1.60
  16  -8   9   -0.55    2.92
   8   8  -9    1.86    2.20
  16  -8  -9    3.71    1.98
  -8  16  -9    2.65    1.19
   8   8  -9    0.81    2.10
 -16   8  -9    0.11    1.61
  16  -8  -9    2.61    2.42
  -8  -8  -9    1.91    1.44
   8 -16  -9    3.81    1.80
  -9   0   0  119.96    3.84
  -9   9   0  121.32    3.27
   0  -9   0  114.63    3.56
   9  -9   0  116.40    3.16
  -9   0   1    0.39    0.49
  -9   9   1    1.60    0.65
   0  -9   1    2.18    0.70
   9  -9   1    1.03    0.54
   0   9  -1    0.69    0.37
  -9   0  -1   -0.05    0.81
   9   0  -1    2.49    0.87
  -9   9  -1    1.11    0.76
   0   9  -1    1.11    0.80
   9  -9  -1   -0.08    0.54
  -9   0   2   76.19    2.71
  -9   9   2   73.11    2.13
   0  -9   2   71.71    2.49
   9  -9   2   72.76    2.19
  -9   0   2   80.44    1.79
   0   9  -2   80.01    2.30
   9   0  -2   74.41    2.82
  -9   0  -2   80.11    2.80
   9  -9  -2   70.09    1.99
   0  -9  -2   73.69    2.54
   9  -9  -2   72.11    2.20
   0   9  -2   80.57    2.75
  -9   9  -2   83.04    2.96
  -9   0  -2   81.75    1.82
   9  -9  -2   74.20    2.28
   0  -9  -2   74.57    2.07
  -9   9   3    0.79    0.52
  -9   0   3    0.25    0.84
   0  -9   3    0.60    0.77
   9  -9   3    0.86    0.61
  -9   0   3    0.67    0.53
   0   9  -3    2.02    0.81
   9   0  -3    0.68    0.84
   9  -9  -3    0.97    0.53
   0   9  -3    0.55    0.82
  -9   9  -3    0.07    0.68
   9   0  -3    0.20    0.44
  -9   0  -3    0.92    0.54
   9  -9  -3    0.30    0.60
   0  -9  -3    1.82    0.84
  -9   0   4   39.42    1.90
   0  -9   4   35.68    1.76
   9  -9   4   34.91    1.56
  -9   0   4   31.89    1.69
   9   0   4   30.79    1.46
   0   9  -4   36.55    1.87
   9   0  -4   36.81    1.90
   9  -9  -4   36.92    1.55
   0   9  -4   39.57    1.88
  -9   9  -4   37.40    1.71
   9   0  -4   36.03    1.33
  -9   0  -4   33.30    1.42
   9  -9  -4   34.08    1.54
   0  -9  -4   38.24    1.86
   0  -9   5    3.16    0.98
   9  -9   5    2.53    0.85
  -9   0   5    2.00    0.75
   9   0   5    2.63    0.80
   9   0  -5    3.13    1.04
   9  -9  -5    3.16    0.84
   0   9  -5    1.76    1.01
  -9   9  -5    1.36    0.92
   9   0  -5    2.32    0.72
  -9   0  -5    2.27    1.02
   9  -9  -5    2.21    0.85
   0  -9  -5    1.46    1.06
   0  -9   6   34.68    1.50
   9  -9   6   31.00    1.94
  -9   0   6   28.66    1.94
   9   0   6   30.03    2.68
   9  -9  -6   34.22    2.03
   9   0  -6   33.93    2.09
   0   9  -6   38.29    2.09
  -9   9  -6   33.10    2.04
   9   0  -6   31.07    1.92
  -9   0  -6   31.86    1.94
   9  -9  -6   32.65    1.95
   0  -9  -6   39.06    2.24
   0  -9   7    2.96    1.21
   9  -9   7    2.95    1.15
  -9   0   7    3.38    1.51
   9   0   7    5.29    1.25
  -9   9   7    1.84    1.27
   9  -9  -7    4.91    1.19
   9   0  -7    2.47    0.79
   0   9  -7    5.03    1.24
  -9   9  -7    2.72    1.21
   9   0  -7    4.12    1.09
  -9   0  -7    4.14    1.10
   9  -9  -7    3.38    1.13
   0  -9  -7    2.83    0.81
   0  -9   8    2.28    1.24
   9  -9   8    1.82    0.75
  -9   0   8    2.38    1.19
   9   0   8    2.52    1.33
  -9   9   8    1.05    1.37
   0   9   8    1.59    0.80
   9   0  -8    2.97    1.33
   9  -9  -8    2.20    1.30
   0   9  -8    2.18    1.23
  -9   9  -8    2.75    1.27
   9   0  -8    2.38    1.14
  -9   0  -8    2.69    1.54
   9  -9  -8    1.76    1.17
   0  -9  -8    2.21    0.83
   0  -9   9    0.58    1.35
   9  -9   9    0.32    1.30
  -9   0   9    1.42    1.31
   9   0   9    0.98    1.46
  -9   9   9    0.60    1.44
   0   9   9    1.42    1.35
   9   0  -9    1.00    1.41
   9  -9  -9    4.37    1.46
   0   9  -9    0.15    1.37
  -9   9  -9    1.27    1.35
   9   0  -9    0.42    1.27
  -9   0  -9    3.50    1.24
   9  -9  -9    0.29    1.23
   0  -9  -9    1.39    0.86
   0  -9  10    9.89    1.80
   9  -9  10    6.60    1.80
  -9   0  10    6.82    1.84
   9   0  10    8.15    2.02
   0   9  10    7.36    1.90
  -9   9  10    5.88    1.99
   9  -9 -10    9.14    2.10
   9   0 -10    7.04    1.96
   0   9 -10    8.39    1.81
  -9   9 -10    8.83    1.82
   9   0 -10    5.49    1.87
  -9   0 -10   10.29    1.75
   9  -9 -10    8.12    1.66
   0  -9 -10    9.19    1.86
   0  -9  11    3.76    1.62
   9  -9  11   -0.18    1.61
  -9   0  11    1.85    1.64
   9   0  11    2.99    1.83
  -9   9  11    1.12    1.87
   0   9  11    1.40    1.71
   9  -9 -11    0.32    1.98
   9   0 -11    1.66    1.81
   0   9 -11    1.07    1.03
  -9   9 -11    1.35    1.67
   9   0 -11    0.64    1.72
  -9   0 -11    0.91    1.59
   9  -9 -11    1.35    1.54
   0  -9 -11    0.99    1.62
   0  -9  12    3.24    1.93
   9  -9  12    3.99    1.13
  -9   0  12    2.93    1.89
   9   0  12    6.70    2.10
  -9   9  12    3.03    2.19
   0   9  12    0.91    1.98
   9  -9 -12    2.22    2.30
   9   0 -12    4.54    2.00
   0   9 -12    2.21    1.86
  -9   9 -12    3.25    1.89
   9   0 -12    0.42    1.97
  -9   0 -12   -0.45    1.77
   9  -9 -12    3.69    1.72
   0  -9 -12    1.60    1.89
  -9  -1   0    7.48    0.99
 -10   1   0    7.62    1.05
  -9  10   0    6.72    0.57
 -10   9   0    6.88    0.74
   1 -10   0    6.87    0.59
  -1  -9   0    7.60    0.87
   9 -10   0    7.30    0.75
  10  -9   0    6.81    0.61
  -9  -1   0    7.30    0.32
  -9  -1   0    6.85    0.33
 -10   9   1    0.89    0.55
  -9  -1   1    1.90    0.80
  -9  10   1    1.04    0.43
 -10   1   1    1.34    0.85
   1 -10   1    0.06    0.76
  -1  -9   1    2.21    0.70
  10  -9   1    0.52    0.50
   9 -10   1    1.47    0.61
  -9  -1   1    1.03    0.29
  -1  -9  -1    1.48    0.37
  -9  -1  -1    2.58    0.83
  -1  10  -1    0.54    0.28
 -10   1  -1    1.57    0.88
 -10   9  -1    1.29    0.63
   1   9  -1    1.19    0.44
   9   1  -1    0.76    0.86
  -9  10  -1    0.62    0.51
  10  -1  -1    1.96    0.87
  -1  10  -1    1.13    0.51
  -1  -9  -1    2.28    0.71
   1 -10  -1    1.06    0.78
  10  -9  -1    1.77    0.68
   9 -10  -1    1.13    0.61
  -9  -1  -1    1.33    0.26
  -9  -1  -1    1.09    0.40
  -9  10   2    5.50    0.71
 -10   9   2    5.23    0.67
  -9  -1   2    4.72    0.97
 -10   1   2    4.55    0.99
  -1  -9   2    4.42    0.84
   1 -10   2    5.96    0.91
   9 -10   2    4.54    0.76
  10  -9   2    4.78    0.64
  -9  -1   2    4.66    0.51
  -1  10  -2    3.86    0.59
  -1  -9  -2    4.42    0.41
   1   9  -2    3.69    0.69
  -9  -1  -2    5.97    0.96
   9   1  -2    5.35    1.00
  10  -1  -2    5.85    1.03
 -10   1  -2    6.50    1.06
  10  -9  -2    5.79    0.66
   9 -10  -2    4.57    0.73
  -1  -9  -2    5.05    0.87
  10  -9  -2    3.98    0.82
  -1  10  -2    5.46    1.00
   1 -10  -2    4.73    0.57
   1   9  -2    4.88    0.92
  -9  10  -2    6.22    0.85
 -10   9  -2    5.53    0.72
  -9  -1  -2    5.28    0.53
  10  -9  -2    4.99    0.63
   9 -10  -2    5.90    1.00
  -1  -9  -2    5.50    0.92
 -10   9   3    0.30    0.80
  -9  -1   3    0.64    0.82
 -10   1   3   -0.03    0.55
  -1  -9   3    0.73    0.46
   1 -10   3    0.96    0.79
   9 -10   3    0.97    0.65
  10  -9   3   -0.22    0.58
  -9  -1   3    0.59    0.42
 -10   1   3    0.60    0.45
  10  -1   3    0.09    0.42
  -1  10  -3   -0.11    0.59
   1   9  -3    1.04    0.60
   9   1  -3    1.22    0.87
  10  -1  -3   -0.56    0.54
  10  -9  -3   -0.07    0.83
   9 -10  -3    0.77    0.48
   1 -10  -3    0.43    0.21
  -1  -9  -3   -0.18    0.39
  -9  -1  -3    0.32    0.86
 -10   1  -3    0.19    0.94
 -10   9  -3    0.13    0.65
  -9  10  -3    0.47    0.73
   1   9  -3    1.42    0.81
  -1  10  -3   -0.68    0.87
   9   1  -3   -0.01    0.47
  10  -1  -3    0.38    0.39
 -10   1  -3    0.37    0.56
  -9  -1  -3    0.17    0.56
  10  -9  -3   -0.36    0.76
   9 -10  -3    0.54    0.65
  -1  -9  -3   -0.01    0.84
   1 -10  -3    0.08    0.86
  -9  -1   4    1.51    0.97
 -10   1   4    3.05    1.04
   1 -10   4    3.23    0.92
  -1  -9   4    3.03    0.89
   9 -10   4    1.72    0.79
  10  -9   4    1.19    0.99
  -9  -1   4    1.57    0.83
 -10   1   4    0.16    0.75
  10  -1   4    1.34    0.75
   9   1   4    1.60    0.57
  -1  10  -4    1.96    0.84
   1   9  -4    2.30    0.91
   9   1  -4    2.91    1.00
   9 -10  -4    1.65    0.67
  10  -1  -4    1.63    0.99
  10  -9  -4    2.94    0.78
  -9  10  -4    2.92    0.90
   1   9  -4    3.14    0.57
  -1  10  -4    1.45    1.00
 -10   9  -4    2.43    0.79
   9   1  -4    1.19    0.54
  10  -1  -4    2.16    0.68
 -10   1  -4    1.89    0.71
  -9  -1  -4    1.12    0.84
  10  -9  -4    2.19    0.70
   9 -10  -4    1.48    0.77
  -1  -9  -4    2.08    0.92
   1 -10  -4    3.04    1.00
   1 -10   5    0.82    1.01
  -1  -9   5    1.20    0.94
   9 -10   5    0.28    0.88
  10  -9   5    0.41    0.80
  -9  -1   5    0.81    0.97
 -10   1   5   -0.01    0.96
  10  -1   5    1.80    1.06
   9   1   5    0.48    0.83
   1   9  -5    2.06    1.05
   9   1  -5    1.54    1.05
   9 -10  -5    0.68    1.07
  10  -9  -5    0.78    0.89
  10  -1  -5    1.96    0.64
  -9  10  -5    1.44    0.94
   1   9  -5    1.65    0.99
  -1  10  -5    1.25    1.03
 -10   9  -5    1.28    0.88
   9   1  -5    2.37    0.94
  10  -1  -5    0.72    0.91
 -10   1  -5    2.23    0.68
  -9  -1  -5    0.39    0.75
  10  -9  -5    0.69    1.08
   9 -10  -5    0.07    0.86
  -1  -9  -5    1.74    1.01
   1 -10  -5    2.88    1.07
  -1  -9   6    0.40    1.07
   1 -10   6    2.62    1.12
   9 -10   6    1.90    0.98
  10  -9   6    1.71    0.96
  -9  -1   6   -0.23    0.89
 -10   1   6    1.03    1.23
  10  -1   6    2.72    1.01
   9   1   6    1.75    1.02
   1   9  -6    1.73    1.12
  10  -9  -6    2.21    1.04
   9   1  -6    0.97    1.16
   9 -10  -6    1.95    0.94
  10  -1  -6    1.81    1.13
   1   9  -6    2.57    1.08
  -9  10  -6    0.81    1.05
  -1  10  -6    2.36    1.14
 -10   9  -6    2.58    1.01
   9   1  -6    2.55    0.90
  10  -1  -6    1.55    0.87
 -10   1  -6    1.42    0.87
  -9  -1  -6    0.76    0.93
  10  -9  -6    1.55    0.94
   9 -10  -6    1.22    0.99
  -1  -9  -6    1.60    1.12
   1 -10  -6    1.84    1.16
   1 -10   7    3.99    1.15
  -1  -9   7    1.90    1.12
   9 -10   7    0.81    1.06
  10  -9   7    1.28    1.05
  -9  -1   7    1.88    1.37
 -10   1   7    0.89    1.04
  10  -1   7   -0.19    1.59
   9   1   7    1.60    1.15
 -10   9   7    1.35    1.15
   1   9  -7    0.14    1.08
  10  -9  -7    0.19    1.13
   9   1  -7    0.10    1.19
   9 -10  -7   -0.32    1.08
  10  -1  -7   -0.09    1.19
  -1  10  -7    1.82    1.18
   1   9  -7    0.30    1.13
  -9  10  -7    1.64    1.10
 -10   9  -7    0.56    1.12
   9   1  -7    2.46    0.98
  10  -1  -7   -0.25    1.01
 -10   1  -7    0.04    1.66
  -9  -1  -7    1.58    1.02
  10  -9  -7    1.77    1.02
   9 -10  -7    0.66    1.06
   1 -10  -7    1.94    1.24
  -1  -9  -7    1.07    0.73
   1 -10   8    0.73    1.21
  -1  -9   8   -1.08    1.15
   9 -10   8    0.11    1.10
  10  -9   8   -0.04    1.08
  -9  -1   8    0.51    1.07
 -10   1   8    2.33    1.07
  10  -1   8    0.07    1.24
   9   1   8   -0.54    1.29
 -10   9   8   -1.43    1.25
  -9  10   8    1.28    1.23
   9 -10  -8   -0.67    1.19
   9   1  -8    0.30    1.19
  10  -9  -8    0.38    1.19
  10  -1  -8   -0.02    0.74
  -9  10  -8   -0.25    1.17
  -1  10  -8   -1.64    1.18
   1   9  -8   -0.87    1.16
 -10   9  -8   -0.02    1.16
   9   1  -8    0.57    1.09
  10  -1  -8   -0.56    1.07
 -10   1  -8    0.63    1.02
  -9  -1  -8   -0.66    1.05
  10  -9  -8   -0.05    1.05
   9 -10  -8    1.43    0.65
  -1  -9  -8   -0.33    0.74
   1 -10  -8    1.03    1.26
  -1  -9   9    1.69    1.35
   1 -10   9    1.84    1.36
   9 -10   9    1.50    1.31
  10  -9   9   -0.38    1.31
  -9  -1   9    0.37    1.30
 -10   1   9    0.32    1.33
  10  -1   9    1.00    1.51
   9   1   9    2.20    1.57
 -10   9   9    0.81    1.49
  -9  10   9    1.31    1.53
   1   9   9    1.40    0.88
  10  -9  -9    1.23    1.49
   9 -10  -9    1.74    1.47
   9   1  -9    0.16    1.45
  10  -1  -9    0.61    1.42
   1   9  -9    0.14    1.34
  -1  10  -9    1.87    0.83
 -10   9  -9   -0.90    1.39
  -9  10  -9    0.92    1.41
   9   1  -9    0.34    1.34
  10  -1  -9    1.12    1.37
 -10   1  -9    2.37    1.29
  -9  -1  -9   -0.34    1.26
  10  -9  -9    1.26    0.76
   9 -10  -9    3.43    1.27
  -1  -9  -9    1.33    0.86
   1 -10  -9    0.79    1.45
  -1  -9  10   -1.30    1.44
   1 -10  10    0.29    1.46
   9 -10  10    0.35    1.41
  10  -9  10    0.58    1.40
  -9  -1  10    0.14    1.40
 -10   1  10    0.67    1.93
  10  -1  10    0.77    1.57
   9   1  10   -0.50    1.70
 -10   9  10    1.56    1.59
  -9  10  10    1.55    1.61
  -1  10  10   -1.21    1.45
   1   9  10    1.00    1.44
  10  -9 -10   -0.46    1.66
   9   1 -10    1.21    1.50
  10  -1 -10    1.53    1.55
   9 -10 -10    0.55    1.65
  -1  10 -10   -0.39    1.43
   1   9 -10   -0.40    1.42
  -9  10 -10    0.26    1.47
 -10   9 -10   -1.50    1.46
   9   1 -10    0.36    1.46
  10  -1 -10   -0.78    1.49
 -10   1 -10    2.31    1.34
  -9  -1 -10   -0.93    1.36
  10  -9 -10   -0.68    1.34
   9 -10 -10    1.47    1.30
  -1  -9 -10    2.04    1.44
   1 -10 -10    1.36    1.48
   1 -10  11   -1.08    1.58
  -1  -9  11   -0.11    1.55
   9 -10  11   -0.63    1.55
  10  -9  11    1.01    1.49
  -9  -1  11    0.59    1.56
 -10   1  11    1.24    1.59
  10  -1  11    1.97    1.77
   9   1  11    0.13    1.86
 -10   9  11   -2.62    1.74
  -9  10  11    0.90    1.75
  -1  10  11   -1.60    1.63
   1   9  11    1.33    1.60
   9 -10 -11   -1.13    1.89
  10  -9 -11   -0.17    1.85
  10  -1 -11    1.86    1.71
   9   1 -11    2.54    1.02
  -9  10 -11    1.03    1.67
  -1  10 -11    2.47    1.59
   1   9 -11    0.16    1.57
 -10   9 -11   -1.45    1.59
   9   1 -11   -0.33    1.67
  10  -1 -11    0.65    1.68
 -10   1 -11    0.80    1.50
  -9  -1 -11    0.31    1.48
  10  -9 -11   -1.14    1.47
  -1  -9 -11    1.02    1.52
   1 -10 -11   -2.26    1.65
   1 -10  12    0.98    1.68
  -1  -9  12   -0.52    1.68
  10  -9  12   -0.48    1.64
  -9  -1  12    0.16    1.69
 -10   1  12   -0.70    1.70
  10  -1  12    1.13    1.90
   9   1  12    2.36    1.91
 -10   9  12   -1.65    1.97
  -9  10  12   -0.86    1.16
   1   9  12   -3.23    1.80
  -1  10  12    1.03    1.70
   9 -10 -12   -0.53    2.10
  10  -9 -12    0.45    2.12
   9   1 -12    1.58    1.84
  10  -1 -12   -2.04    1.91
  -9  10 -12   -0.19    1.73
  -1  10 -12   -1.44    1.69
   1   9 -12    1.99    1.64
 -10   9 -12   -1.81    1.69
   9   1 -12    2.12    1.82
  10  -1 -12    1.70    1.82
 -10   1 -12   -0.41    1.60
  -9  -1 -12    1.14    1.59
  10  -9 -12   -0.23    1.53
   9 -10 -12    0.37    1.54
   1 -10 -12    0.85    1.06
  -1  -9 -12   -2.20    1.68
  -9  -2   0   21.04    1.33
  -9  11   0   19.10    0.96
 -11   2   0   22.29    1.49
 -11   9   0   20.25    1.16
  -2  -9   0   19.44    1.19
   2 -11   0   23.06    1.40
   9 -11   0   20.46    1.13
  11  -9   0   21.19    1.05
  -9  -2   0   21.73    0.69
  -9  -2   0   22.46    0.83
  -9  -2   1    8.31    0.99
  -9  11   1    6.68    0.64
 -11   9   1    7.33    0.79
  -2  -9   1    6.28    0.55
   9 -11   1    7.17    0.84
   2 -11   1    8.82    1.01
  11  -9   1    6.89    0.62
  -9  -2   1    6.81    0.49
  -2  -9  -1    7.67    0.57
  -9  -2  -1    6.44    1.00
 -11   2  -1    7.03    0.73
  -9  11  -1    6.04    0.59
 -11   9  -1    6.41    0.87
   9   2  -1    6.78    1.06
   2   9  -1    5.30    0.51
  11  -2  -1    6.52    0.69
  -2  -9  -1    7.22    0.87
   9 -11  -1    6.71    0.84
   2 -11  -1    8.80    1.02
  11  -9  -1    6.36    0.58
  -9  -2  -1    6.52    0.44
  -9  -2  -1    6.70    0.54
  11  -9  -1    6.73    0.61
  -9  11   2    6.41    0.69
  -9  -2   2    6.44    1.02
 -11   9   2    7.53    0.80
 -11   2   2    6.54    1.11
   2 -11   2    6.70    0.63
  -2  -9   2    7.00    0.91
   9 -11   2    6.02    0.86
  11  -9   2    6.45    0.64
  -9  -2   2    6.50    0.62
  -2  11  -2    5.70    0.58
  -2  -9  -2    5.49    0.54
   2   9  -2    3.83    0.83
  -9  -2  -2    6.36    1.03
   9   2  -2    7.01    1.10
 -11   2  -2    7.21    1.15
  11  -2  -2    7.24    1.14
 -11   9  -2    5.86    0.94
   9   2  -2    5.70    0.50
  -2  -9  -2    6.74    0.90
   2   9  -2    6.88    0.98
  -9  11  -2    8.12    0.95
   9 -11  -2    6.41    0.88
  -2  11  -2    8.22    1.12
   2 -11  -2    5.92    1.07
 -11   9  -2    6.92    0.97
  11  -9  -2    5.88    0.62
  -9  -2  -2    6.30    0.65
  11  -9  -2    5.29    0.83
   9 -11  -2    6.95    0.91
  -2  -9  -2    6.81    0.98
  -9  -2   3    1.95    0.89
 -11   2   3    0.55    0.96
 -11   9   3    1.28    0.67
   2 -11   3    1.12    0.91
  -2  -9   3    2.36    0.77
   9 -11   3    0.18    0.74
  11  -9   3    0.38    0.59
  -9  -2   3    0.24    0.65
 -11   2   3    0.42    0.37
  11  -2   3    0.62    0.42
  -2  11  -3    0.25    0.84
   2   9  -3    1.02    0.88
   9   2  -3    0.21    0.94
  11  -2  -3    1.83    0.97
  -2  -9  -3    0.64    0.48
  11  -9  -3    0.36    0.71
  -9  -2  -3    1.66    0.91
   9 -11  -3    1.20    0.58
 -11   2  -3    0.80    1.03
   2 -11  -3    0.88    0.89
   2   9  -3    0.22    0.84
  -2  11  -3    2.46    0.96
  -9  11  -3    1.10    0.84
 -11   9  -3    0.98    0.89
   9   2  -3    1.33    0.55
  11  -2  -3    0.42    0.35
 -11   2  -3    0.47    0.39
  -9  -2  -3    1.02    0.49
  11  -9  -3    1.17    0.57
  -2  -9  -3    1.19    0.88
   9 -11  -3   -0.27    0.78
   2 -11  -3    1.22    0.98
  -9  -2   4    4.50    0.69
 -11   2   4    5.67    0.78
   2 -11   4    6.07    1.12
  -2  -9   4    5.64    1.04
   9 -11   4    5.96    0.96
  11  -9   4    3.71    0.82
  -9  -2   4    4.25    1.00
 -11   2   4    4.23    0.77
  11  -2   4    5.08    0.88
   2   9  -4    5.82    1.06
  11  -2  -4    4.98    1.19
   9   2  -4    3.98    1.19
  11  -9  -4    4.92    0.99
   9 -11  -4    4.60    0.89
  -2  11  -4    5.71    1.19
   2   9  -4    7.42    1.08
  -9  11  -4    6.83    1.06
 -11   9  -4    6.16    0.88
   9   2  -4    4.64    0.88
  11  -2  -4    4.59    0.78
 -11   2  -4    3.67    0.77
  -9  -2  -4    3.92    0.74
  11  -9  -4    4.63    0.79
   9 -11  -4    5.49    0.97
  -2  -9  -4    5.14    1.05
   2 -11  -4    4.76    1.20
   2 -11   5    7.32    1.34
  -2  -9   5    8.67    0.76
   9 -11   5    6.84    1.14
  11  -9   5    6.22    1.36
  -9  -2   5    6.08    1.00
 -11   2   5    3.60    1.14
  11  -2   5    6.98    1.02
   9   2   5    4.58    1.00
   2   9  -5    5.76    1.42
   9   2  -5    7.05    1.37
   9 -11  -5    7.30    0.96
  11  -2  -5    7.57    1.34
  11  -9  -5    8.30    1.17
  -2  11  -5    8.98    1.35
   2   9  -5    8.61    1.25
  -9  11  -5    8.64    1.24
 -11   9  -5    7.83    1.07
   9   2  -5    6.59    0.92
  11  -2  -5    7.48    1.14
 -11   2  -5    4.85    0.85
  -9  -2  -5    6.36    0.97
  11  -9  -5    6.51    1.02
  -2  -9  -5    8.98    1.23
   9 -11  -5    7.80    1.10
   2 -11  -5    8.30    1.39
   2 -11   6    4.16    1.25
  -2  -9   6    3.99    1.15
   9 -11   6    2.87    1.12
  11  -9   6    2.97    1.03
  -9  -2   6    1.50    1.00
 -11   2   6    2.23    1.26
  11  -2   6    2.08    1.14
   9   2   6    4.03    1.12
   2   9  -6    5.14    1.40
   9   2  -6    3.22    1.27
   9 -11  -6    4.72    0.98
  11  -2  -6    2.48    1.28
  11  -9  -6    5.10    1.57
   2   9  -6    5.14    1.21
  -2  11  -6    5.36    0.79
  -9  11  -6    4.70    1.18
 -11   9  -6    3.01    1.08
   9   2  -6    4.28    1.04
  11  -2  -6    2.16    0.92
 -11   2  -6    2.77    0.90
  -9  -2  -6    2.79    1.02
  11  -9  -6    1.24    1.00
  -2  -9  -6    4.10    0.75
   9 -11  -6    2.74    1.10
   2 -11  -6    2.82    1.32
   2 -11   7    6.25    1.41
  -2  -9   7    5.75    1.32
   9 -11   7    5.18    1.32
  11  -9   7    4.14    1.25
  -9  -2   7    4.29    1.20
 -11   2   7    6.07    1.21
  11  -2   7    5.76    1.42
   9   2   7    5.84    1.98
   2   9  -7    4.80    1.50
   9   2  -7    5.49    1.41
   9 -11  -7    4.14    1.27
  11  -2  -7    5.53    1.44
  11  -9  -7    4.28    1.42
   2   9  -7    6.00    0.88
  -9  11  -7    3.90    1.40
  -2  11  -7    6.22    1.45
 -11   9  -7    4.97    1.28
   9   2  -7    5.08    1.65
  11  -2  -7    4.59    1.22
 -11   2  -7    3.57    1.14
  -9  -2  -7    5.65    1.21
  11  -9  -7    4.58    1.21
  -2  -9  -7    5.56    1.41
   9 -11  -7    5.36    1.29
   2 -11  -7    5.22    1.48
   2 -11   8    0.03    1.31
  -2  -9   8    0.50    1.24
   2 -11   8    0.06    1.34
   9 -11   8    0.45    1.23
  11  -9   8    1.93    1.20
  -9  -2   8    2.25    1.18
  11  -2   8    3.53    1.38
 -11   2   8    3.11    1.16
   9   2   8    0.30    1.50
 -11   9   8    1.62    1.40
   2   9  -8    0.92    1.27
   9   2  -8    1.03    0.81
   9 -11  -8    2.13    1.25
  11  -9  -8   -0.54    1.33
  11  -2  -8    1.34    1.33
  -2  11  -8    2.90    1.33
   2   9  -8    1.39    1.25
  -9  11  -8    3.28    1.30
 -11   9  -8    3.27    1.26
   9   2  -8    0.20    1.21
  11  -2  -8    0.34    1.22
 -11   2  -8    0.81    1.12
  -9  -2  -8    1.93    1.19
  11  -9  -8    1.03    1.11
  -2  -9  -8    0.82    1.30
   9 -11  -8    0.71    1.19
   2 -11  -8   -0.33    1.37
   2 -11   9    2.33    1.54
  -2  -9   9    2.74    1.43
   9 -11   9    1.94    1.43
  11  -9   9    4.42    1.47
  -9  -2   9    1.14    1.39
  11  -2   9    3.44    1.67
 -11   2   9    2.42    1.43
   9   2   9    4.80    1.75
 -11   9   9    4.74    1.63
   2   9  -9   -0.09    1.35
   9 -11  -9    1.77    1.63
   9   2  -9    1.63    1.55
  11  -9  -9    3.41    1.66
  11  -2  -9    4.46    1.55
   2   9  -9    0.93    1.45
  -9  11  -9    3.91    1.53
  -2  11  -9    2.88    1.51
 -11   9  -9    2.93    1.50
   9   2  -9    3.71    1.47
  11  -2  -9    3.65    1.57
 -11   2  -9    2.83    1.37
  -9  -2  -9    3.41    1.38
  11  -9  -9    5.31    1.33
  -2  -9  -9    2.36    1.52
   9 -11  -9    0.74    1.37
   2 -11  -9    2.67    1.61
   2 -11  10    1.86    1.56
  -2  -9  10    0.63    1.49
   9 -11  10    1.76    1.48
  11  -9  10    0.82    1.47
  -9  -2  10    1.97    1.48
 -11   2  10   -1.23    2.03
  11  -2  10    2.55    1.71
   9   2  10    0.83    1.86
 -11   9  10    1.07    1.69
   2   9  10    1.66    1.00
  -9  11  10    4.86    1.69
   2   9 -10    2.09    1.36
   9   2 -10    0.30    1.60
   9 -11 -10    1.27    1.77
  11  -2 -10    1.23    1.02
  11  -9 -10    1.77    1.74
   2   9 -10    0.88    1.49
  -9  11 -10    0.20    1.56
  -2  11 -10    0.67    1.53
 -11   9 -10    1.47    1.54
   9   2 -10    1.33    1.55
 -11   2 -10    0.28    1.43
  11  -2 -10    1.49    1.64
  -9  -2 -10    0.21    1.43
  11  -9 -10    0.63    1.39
  -2  -9 -10    1.05    1.55
   9 -11 -10    0.93    1.44
   2 -11 -10    0.49    1.62
   2 -11  11    0.75    1.70
  -2  -9  11    1.00    1.05
   9 -11  11    0.40    1.66
  11  -9  11   -1.01    1.61
  -9  -2  11    4.28    1.61
 -11   2  11    2.66    1.69
  11  -2  11    3.85    1.88
   9   2  11   -0.71    2.03
 -11   9  11    0.38    1.91
   2   9  11    1.47    1.77
  -9  11  11    0.77    1.87
   2   9 -11    0.45    1.52
   9 -11 -11    2.12    2.04
   9   2 -11    0.26    1.76
  11  -9 -11    1.75    1.97
  11  -2 -11    1.25    1.85
   2   9 -11    2.34    1.61
  -2  11 -11    1.03    1.05
  -9  11 -11    2.09    1.79
 -11   9 -11    2.00    1.73
   9   2 -11    1.85    1.80
  11  -2 -11    0.02    1.85
 -11   2 -11    1.17    1.60
  -9  -2 -11   -0.77    1.57
  11  -9 -11    1.84    1.52
  -2  -9 -11    0.18    1.64
   9 -11 -11   -0.06    0.97
   2 -11 -11    1.28    1.10
   2 -11  12    0.66    1.17
  -2  -9  12    0.41    1.85
   9 -11  12    2.02    1.81
  11  -9  12    0.48    1.82
  -9  -2  12   -1.06    1.83
 -11   2  12    0.18    1.87
  11  -2  12    6.52    2.12
   9   2  12   -0.70    2.20
 -11   9  12    0.12    2.09
   2   9  12    4.46    1.90
  -9  11  12    0.16    2.04
   2   9 -12    2.09    1.78
   9   2 -12    2.40    1.95
   9 -11 -12   -0.30    2.27
  11  -9 -12    2.63    2.31
  11  -2 -12    1.22    2.04
  -2  11 -12    1.86    1.81
   2   9 -12    2.23    1.82
  -9  11 -12    3.01    1.92
 -11   9 -12   -0.11    1.87
   9   2 -12   -0.28    2.02
  11  -2 -12    1.53    2.03
 -11   2 -12    2.08    1.74
  -9  -2 -12   -1.63    1.70
  11  -9 -12   -0.01    1.66
   9 -11 -12    2.24    1.71
  -2  -9 -12    0.79    1.79
   2 -11 -12    0.33    1.86
  -3  -9   0   57.76    1.88
  -9  -3   0   55.93    2.21
  -9  12   0   53.24    1.58
 -12   9   0   55.48    2.18
   3 -12   0   56.94    2.40
   9 -12   0   57.21    2.12
  -3  -9   0   54.20    1.99
  -9  -3   0   56.87    1.34
  -9  12   1    0.33    0.47
  -9  -3   1    0.71    0.84
 -12   9   1    1.09    0.72
   9 -12   1    0.10    0.77
   3 -12   1    2.59    0.90
  -3  -9   1    0.86    0.70
  -9  -3   1    0.77    0.50
  -3  -9  -1    0.86    0.39
  -9  12  -1   -0.18    0.55
 -12   9  -1    0.05    0.81
   3   9  -1    0.62    0.63
   9   3  -1   -0.14    0.88
   3 -12  -1    0.76    0.55
  12  -9  -1    0.47    0.42
  -9  -3  -1    1.34    0.42
  -9  -3  -1    1.71    0.53
  12  -9  -1   -0.02    0.46
  -9  -3   2   21.93    1.49
 -12   3   2   23.65    1.63
 -12   9   2   22.72    1.28
   3 -12   2   22.08    1.03
   9 -12   2   22.74    1.39
  -3  -9   2   22.64    1.30
  12  -9   2   22.39    0.99
  -9  -3   2   22.50    0.88
  -3  12  -2   21.89    0.85
  -3  -9  -2   20.81    0.96
  -9  -3  -2   23.39    1.50
   3   9  -2   18.77    1.38
 -12   3  -2   24.86    1.77
   9   3  -2   21.67    1.60
 -12   9  -2   23.48    1.55
  12  -3  -2   22.54    1.73
 -12   9  -2   24.27    1.02
  -9  12  -2   23.26    1.55
   3   9  -2   23.86    1.45
  -3  12  -2   26.05    1.73
   9 -12  -2   22.09    1.41
  -3  -9  -2   21.97    1.29
  12  -9  -2   19.40    1.11
   3 -12  -2   25.48    1.59
  -9  -3  -2   22.69    0.94
  12  -9  -2   21.17    1.20
  -3  -9  -2   23.10    1.45
   9 -12  -2   21.00    1.41
  -9  -3   3    0.90    0.90
 -12   3   3   -1.38    1.03
 -12   9   3    1.13    0.76
   3 -12   3    1.89    0.98
   9 -12   3   -0.34    0.83
  -3  -9   3    0.95    0.79
  12  -9   3    0.38    0.81
  -9  -3   3    0.98    0.52
  12  -3   3    0.49    0.36
  -3  12  -3    0.73    0.62
   3   9  -3   -0.36    0.71
   9   3  -3    0.01    1.00
  -3  -9  -3    1.01    0.57
  12  -3  -3    0.95    0.62
  -9  -3  -3    0.49    0.92
 -12   3  -3    0.50    1.12
  12  -9  -3    0.53    0.81
   9 -12  -3    0.75    0.85
  -3  -9  -3    0.72    0.79
   3 -12  -3    1.32    0.97
  -9  12  -3    0.46    0.57
   3   9  -3    1.73    0.86
  -3  12  -3    0.60    1.03
   9   3  -3    0.38    0.46
 -12   9  -3   -0.54    0.65
 -12   3  -3    0.12    0.35
  12  -3  -3    0.01    0.37
  -9  -3  -3   -0.35    0.72
  12  -9  -3   -0.12    0.56
   9 -12  -3    0.42    0.88
  -3  -9  -3    0.87    0.87
   3 -12  -3   -0.12    1.09
 -12   9   4   16.31    1.29
 -12   3   4   18.73    1.73
   3 -12   4   20.81    1.61
   9 -12   4   18.58    1.46
  -3  -9   4   18.07    1.42
  12  -9   4   16.34    1.19
  -9  -3   4   15.05    1.13
  12  -3   4   14.82    1.26
 -12   3   4   15.97    1.04
   3   9  -4   17.69    1.53
   9   3  -4   19.62    1.68
  12  -3  -4   18.95    1.10
  12  -9  -4   18.29    1.47
  -3  -9  -4   15.59    1.14
  -9  -3  -4   21.19    1.63
  -9  12  -4   20.36    1.59
   3   9  -4   20.56    1.53
  -3  12  -4   21.03    1.69
 -12   9  -4   19.03    1.24
   9   3  -4   16.73    1.05
  12  -3  -4   17.64    1.14
  -9  -3  -4   16.01    1.15
  12  -9  -4   15.87    1.15
  -3  -9  -4   16.52    1.47
   9 -12  -4   16.97    1.42
   3 -12  -4   19.13    1.76
   3 -12   5    1.25    0.69
   9 -12   5    1.51    0.99
  -3  -9   5    0.51    0.99
  12  -9   5    1.64    0.86
  -9  -3   5    2.80    0.83
  12  -3   5    1.08    1.14
 -12   3   5    0.41    0.90
   3   9  -5   -1.32    1.19
   9   3  -5   -0.42    1.16
   9 -12  -5    1.29    0.84
  12  -3  -5    2.64    1.14
  12  -9  -5    1.19    1.03
  -9  12  -5    0.95    1.10
   3   9  -5    1.85    1.03
  -3  12  -5    2.31    1.20
 -12   9  -5   -0.01    0.87
   9   3  -5    1.14    1.04
 -12   3  -5   -0.34    0.88
  12  -3  -5    0.55    0.93
  -9  -3  -5    1.13    0.82
  12  -9  -5    1.84    0.82
   9 -12  -5    0.68    1.00
  -3  -9  -5    1.52    0.60
   3 -12  -5    1.74    1.22
   3 -12   6   15.64    1.74
   9 -12   6   15.54    1.59
  -3  -9   6   14.29    1.57
  12  -9   6   14.36    1.50
  -9  -3   6   13.33    1.45
  12  -3   6   13.67    1.73
 -12   3   6   12.84    1.35
   3   9  -6   17.98    2.07
   9   3  -6   16.46    1.75
   9 -12  -6   13.57    1.75
  12  -3  -6   16.85    1.71
  12  -9  -6   17.61    1.69
  -9  12  -6   17.43    1.71
   3   9  -6   17.43    1.67
 -12   9  -6   14.10    1.49
   9   3  -6   14.42    1.91
 -12   3  -6   13.02    1.64
  12  -3  -6   13.17    1.75
  -9  -3  -6   11.73    1.43
  12  -9  -6   12.35    1.41
   9 -12  -6   13.03    1.54
  -3  -9  -6   15.83    1.59
   3 -12  -6   16.93    1.89
   3 -12   7    1.07    1.27
   9 -12   7    1.16    1.18
  -3  -9   7    1.65    1.17
  12  -9   7    0.98    1.15
  -9  -3   7    0.53    1.07
  12  -3   7    0.94    1.76
 -12   3   7    0.96    1.41
   9   3   7    2.06    1.31
   3   9  -7    1.80    1.48
   9 -12  -7    1.83    1.07
   9   3  -7    2.51    1.29
  12  -9  -7    2.58    1.28
  12  -3  -7   -0.07    1.30
  -3  12  -7    0.92    1.33
  -9  12  -7    1.74    1.25
   3   9  -7    0.71    1.24
 -12   9  -7    0.25    1.13
   9   3  -7    3.16    1.16
 -12   3  -7    0.68    0.98
  12  -3  -7   -0.06    1.46
  -9  -3  -7    0.05    2.06
  12  -9  -7    0.52    1.07
   9 -12  -7    1.99    1.17
  -3  -9  -7    1.57    1.22
   3 -12  -7    1.48    0.81
   3 -12   8    2.75    1.41
   9 -12   8    2.75    1.36
  -3  -9   8    2.67    1.36
  12  -9   8    3.27    1.37
  -9  -3   8    2.48    1.67
  12  -3   8    4.26    2.03
 -12   3   8    3.01    1.69
   9   3   8    5.55    1.65
 -12   9   8    3.87    1.46
   3   9  -8    2.19    1.53
   9   3  -8    4.79    1.45
   9 -12  -8    3.36    1.82
  12  -3  -8    2.46    1.48
  12  -9  -8    1.22    1.49
  -9  12  -8    3.54    1.46
   3   9  -8    2.92    1.39
  -3  12  -8    2.65    1.47
   9   3  -8    2.88    1.43
 -12   9  -8    1.87    1.39
 -12   3  -8    3.51    1.19
  12  -3  -8    2.30    1.83
  -9  -3  -8    3.16    1.29
  12  -9  -8    2.43    1.21
   9 -12  -8    1.56    1.34
  -3  -9  -8    3.51    1.38
   3 -12  -8    2.50    0.96
   3 -12   9    0.21    1.44
   9 -12   9    0.45    1.35
  -3  -9   9   -0.13    1.35
  12  -9   9    1.69    1.38
  -9  -3   9    1.41    1.33
  12  -3   9    2.54    1.59
 -12   3   9    0.37    1.80
   9   3   9   -0.64    1.83
 -12   9   9   -0.46    1.57
   3   9  -9    1.85    1.38
   9 -12  -9   -0.83    1.52
   9   3  -9    1.27    0.88
  12  -3  -9    2.70    1.50
  12  -9  -9    2.06    1.56
  -9  12  -9   -0.02    1.48
  -3  12  -9    0.34    0.92
   3   9  -9    1.67    1.40
 -12   9  -9    0.55    1.44
   9   3  -9    1.17    1.41
 -12   3  -9    3.99    1.26
  12  -3  -9    1.62    2.05
  -9  -3  -9    0.62    1.30
  12  -9  -9    2.03    1.70
   9 -12  -9   -0.61    1.33
  -3  -9  -9   -0.09    1.38
   3 -12  -9   -0.79    1.51
   3 -12  10    2.66    1.80
   9 -12  10    4.33    1.07
  -3  -9  10    5.14    1.70
  12  -9  10    4.17    1.69
  -9  -3  10    2.35    1.64
  12  -3  10    4.78    1.99
 -12   3  10    1.81    2.31
   9   3  10    5.55    2.28
 -12   9  10    2.69    1.99
   3   9 -10    3.30    1.63
   9 -12 -10    3.43    2.03
   9   3 -10    3.55    1.77
  12  -3 -10    2.74    1.86
  12  -9 -10    6.95    2.01
  -3  12 -10    5.14    1.79
  -9  12 -10    3.74    1.81
   3   9 -10    3.54    1.71
 -12   9 -10    4.23    1.81
   9   3 -10    4.35    2.35
 -12   3 -10    2.87    1.64
  12  -3 -10    5.99    1.94
  -9  -3 -10    2.92    1.59
  12  -9 -10    3.46    1.58
   9 -12 -10    3.82    1.65
  -3  -9 -10    4.84    1.09
   3 -12 -10    3.06    1.86
   3 -12  11    2.61    1.15
   9 -12  11    3.18    1.76
  -3  -9  11    4.06    1.74
  12  -9  11    1.83    1.76
  -9  -3  11    2.28    1.70
  12  -3  11    2.64    2.11
 -12   3  11    1.91    1.82
   9   3  11    3.55    2.36
 -12   9  11    1.88    2.03
   3   9 -11    1.21    1.67
   9   3 -11    0.27    1.82
   9 -12 -11    1.67    2.16
  12  -3 -11    0.84    1.95
  12  -9 -11    3.97    2.14
  -3  12 -11    2.42    1.84
  -9  12 -11    0.98    1.15
   3   9 -11    3.50    1.79
   9   3 -11    1.48    1.90
 -12   9 -11    2.05    1.82
 -12   3 -11   -0.03    1.71
  12  -3 -11    4.29    2.06
  -9  -3 -11    0.09    1.67
  12  -9 -11    0.68    1.62
   9 -12 -11    4.04    1.60
  -3  -9 -11   -0.53    1.69
   3 -12 -11    3.94    1.87
  -4  -9   0    8.69    0.66
  -9  13   0    6.70    0.56
  -9  -4   0    8.95    1.08
 -13   9   0    9.36    1.12
  -4  -9   0    8.16    0.91
   9 -13   0    9.18    1.08
  -9  -4   0    9.77    0.72
  13  -9   0    9.20    0.73
  -9  -4   0    8.40    0.69
  13  -9   0    7.58    0.52
  -9  13   1    0.89    0.44
  -9  -4   1    0.03    0.88
 -13   9   1    1.44    0.86
   9 -13   1    0.52    0.88
   4 -13   1    3.77    1.00
  -4  -9   1    2.14    0.72
  -9  -4   1    1.04    0.45
  13  -9   1    1.01    0.45
  -4  -9  -1    1.52    0.45
  -9  -4  -1    1.66    0.86
 -13   4  -1    3.19    1.17
  -9  13  -1    0.74    0.49
 -13   9  -1    0.57    0.94
   9   4  -1    0.02    0.57
   4   9  -1    1.08    0.53
   9 -13  -1    2.04    0.88
  -4  -9  -1    0.82    0.72
  -9  -4  -1    0.57    0.52
  13  -9  -1    1.11    0.39
  -9  -4  -1    0.38    0.42
  13  -9  -1    0.89    0.56
  -9  -4   2    4.75    1.00
 -13   4   2    3.44    1.18
 -13   9   2    4.08    0.92
   4 -13   2    3.68    0.67
   9 -13   2    3.40    0.99
  -4  -9   2    1.88    0.84
  13  -9   2    2.96    0.59
  -9  -4   2    3.93    0.57
  -4  13  -2    2.32    0.52
  -4  -9  -2    3.76    0.52
  -9  -4  -2    3.70    0.98
   4   9  -2    1.75    0.72
 -13   4  -2    2.94    1.26
   9   4  -2    3.70    1.08
 -13   9  -2    4.10    1.12
  13  -4  -2    2.81    1.17
  -9  13  -2    3.18    1.08
   4   9  -2    4.79    0.91
   9 -13  -2    4.36    1.02
  -4  -9  -2    4.38    0.84
   4 -13  -2    3.81    0.70
  -9  -4  -2    2.57    0.61
  13  -9  -2    2.16    0.61
  -9  -4  -2    3.02    0.57
  13  -9  -2    2.14    0.73
  -4  -9  -2    3.72    0.92
   9 -13  -2    4.04    1.01
  -9  -4   3    2.44    1.01
 -13   9   3    1.86    0.91
 -13   4   3    3.34    1.16
   4 -13   3    1.57    1.11
   9 -13   3    1.58    0.59
  -4  -9   3    1.99    0.88
  -9  -4   3    1.61    0.62
  13  -9   3    1.77    0.89
   4   9  -3    2.88    1.12
  -4  -9  -3    1.65    0.53
   9   4  -3    2.36    1.12
  -9  -4  -3    1.22    1.00
  13  -4  -3    3.36    1.16
 -13   4  -3    2.62    0.81
  13  -9  -3    2.49    0.99
 -13   9  -3    1.01    1.13
  -9  -4  -3    1.42    0.50
   9 -13  -3    2.10    1.02
  -4  -9  -3    1.17    0.86
   4   9  -3    3.23    0.94
   4 -13  -3    2.07    0.69
  -4  13  -3    2.81    1.21
  13  -9  -3    1.76    0.66
   9   4  -3    1.54    0.55
 -13   9  -3    1.31    0.86
  -9  13  -3    2.16    1.08
  -9  -4  -3    1.88    0.84
  13  -9  -3    1.50    0.63
  -4  -9  -3    1.88    0.89
   9 -13  -3    3.37    1.04
   4 -13  -3    1.93    0.74
 -13   4   4    0.87    1.21
 -13   9   4    0.25    0.90
   9 -13   4    1.43    0.97
   4 -13   4    0.30    1.12
  -4  -9   4    0.14    0.92
  13  -9   4    1.28    0.76
  -9  -4   4    1.66    0.70
  13  -4   4    1.26    0.75
   4   9  -4    0.09    0.99
   9   4  -4   -0.29    1.15
  -4  -9  -4    0.72    0.57
  13  -4  -4    1.57    1.13
  13  -9  -4    0.92    1.01
   9 -13  -4    1.24    0.50
  -9  -4  -4    1.22    1.09
 -13   4  -4    1.54    0.81
   4 -13  -4    2.13    0.69
  -4  13  -4    2.01    1.21
   9   4  -4    1.32    0.67
  -9  13  -4    1.60    1.12
   4   9  -4    0.40    0.97
 -13   9  -4    1.26    0.75
 -13   4  -4    1.36    0.57
  13  -4  -4    1.56    0.69
  -9  -4  -4    1.14    0.71
  13  -9  -4    0.16    0.94
  -4  -9  -4    0.77    0.93
   9 -13  -4    0.91    0.62
   4 -13  -4    0.21    1.24
 -13   4   5    0.15    0.70
   4 -13   5    0.17    1.17
   9 -13   5   -1.12    1.03
  -4  -9   5    0.65    0.93
  -9  -4   5    1.34    0.80
  13  -9   5   -0.37    0.87
  13  -4   5    0.05    1.16
 -13   4   5    0.29    0.87
   4 -13  -5    0.31    0.27
   4   9  -5    0.51    1.18
   9   4  -5    3.60    1.19
   9 -13  -5    0.35    0.65
  13  -4  -5   -0.88    1.16
  13  -9  -5    3.30    1.09
  -4  13  -5    0.93    1.18
  -9  13  -5   -1.62    1.13
   4   9  -5    1.15    1.03
   9   4  -5    0.46    1.08
 -13   9  -5   -1.01    1.12
 -13   4  -5   -0.15    0.80
  13  -4  -5    1.35    0.92
  -9  -4  -5    0.23    0.82
  13  -9  -5   -0.21    0.77
  -4  -9  -5    0.33    0.95
   4 -13  -5    0.69    1.25
   9 -13  -5    1.18    1.03
   4 -13   6   -0.63    1.19
   9 -13   6    0.37    1.13
  -4  -9   6    1.10    1.04
  -9  -4   6    0.49    0.97
  13  -9   6    0.54    1.02
  13  -4   6    0.76    1.52
 -13   4   6    1.62    0.83
   4 -13  -6   -0.14    0.78
   4   9  -6   -0.47    1.45
   9   4  -6    1.47    1.31
   9 -13  -6    0.24    0.68
  13  -9  -6    1.89    1.19
  13  -4  -6    1.49    0.75
  -9  13  -6    0.47    1.21
  -4  13  -6    2.18    0.80
   9   4  -6   -0.34    1.31
 -13   9  -6    2.03    1.31
 -13   4  -6    0.69    1.05
  13  -4  -6    0.32    0.89
  -9  -4  -6   -0.84    0.94
  13  -9  -6   -0.13    0.93
  -4  -9  -6   -0.05    1.04
   9 -13  -6    2.00    1.09
   4 -13  -6    0.41    1.27
   4 -13   7   -0.52    0.79
   9 -13   7    0.53    1.16
  -4  -9   7   -0.39    1.11
  13  -9   7   -0.44    1.12
  -9  -4   7    0.69    1.05
  13  -4   7    0.22    1.29
 -13   4   7    1.47    0.99
   4 -13  -7    0.52    0.79
   4   9  -7    1.01    1.54
   9   4  -7    0.31    1.33
   9 -13  -7   -0.52    0.95
  13  -4  -7   -1.37    1.27
  13  -9  -7    0.24    1.25
   4   9  -7    1.53    1.20
  -4  13  -7   -1.15    1.30
  -9  13  -7   -0.73    1.28
   9   4  -7    0.30    1.16
 -13   9  -7    2.04    1.07
 -13   4  -7    0.40    0.94
  13  -4  -7   -0.42    1.08
  13  -9  -7   -1.55    1.02
  -9  -4  -7    1.72    1.03
  -4  -9  -7    0.69    1.11
   9 -13  -7    1.15    1.14
   4 -13  -7   -0.85    1.35
   4 -13   8    0.58    0.85
   9 -13   8   -0.03    1.27
  -4  -9   8   -0.82    1.21
  -9  -4   8    0.26    1.17
  13  -9   8    2.08    1.25
  13  -4   8   -0.30    1.41
 -13   4   8   -0.23    1.18
   9   4   8   -0.65    1.51
   4   9  -8    1.68    1.57
   9 -13  -8    1.78    1.19
   9   4  -8   -2.96    1.43
  13  -4  -8    0.74    1.38
  13  -9  -8   -0.30    0.87
  -9  13  -8   -0.06    1.38
  -4  13  -8    1.75    0.86
   4   9  -8    0.42    1.32
   9   4  -8   -0.01    1.31
 -13   9  -8   -0.29    1.20
 -13   4  -8   -0.49    1.12
  13  -4  -8    0.77    1.33
  -9  -4  -8    1.47    1.16
  13  -9  -8   -0.19    1.14
   9 -13  -8   -0.52    1.23
  -4  -9  -8   -0.93    1.25
   4 -13  -8    1.99    1.44
   4 -13   9    0.52    0.90
   9 -13   9   -0.98    1.35
  -4  -9   9    0.42    1.33
  -9  -4   9    2.50    1.67
  13  -9   9    0.92    1.36
  13  -4   9   -0.43    1.57
 -13   4   9    0.41    1.81
   9   4   9   -0.01    1.83
 -13   9   9    1.23    1.48
   4   9  -9    0.59    1.49
   9   4  -9   -0.96    1.44
   9 -13  -9   -0.39    1.90
  13  -4  -9    1.22    1.47
  13  -9  -9    1.24    1.55
  -4  13  -9    1.00    1.46
  -9  13  -9   -0.51    1.48
   4   9  -9   -2.39    1.40
   9   4  -9   -0.83    1.49
 -13   9  -9   -0.78    1.40
 -13   4  -9    1.27    1.26
  13  -4  -9   -0.67    1.56
  -9  -4  -9    0.33    1.25
  13  -9  -9   -1.33    1.25
  -4  -9  -9   -2.78    1.33
   9 -13  -9   -0.61    1.32
   4 -13  -9   -0.01    1.53
   4 -13  10   -3.45    1.61
   9 -13  10    0.36    1.52
  -4  -9  10   -0.71    1.49
  13  -9  10    0.28    1.53
  -9  -4  10    0.53    1.47
  13  -4  10    1.83    2.36
 -13   4  10   -1.14    2.12
   9   4  10   -0.83    2.12
 -13   9  10    3.16    1.74
   4   9 -10   -0.04    1.48
   9   4 -10   -0.32    0.97
   9 -13 -10    0.68    1.71
  13  -4 -10    0.21    1.70
  13  -9 -10    1.11    1.78
  -9  13 -10    1.75    1.63
   4   9 -10   -0.08    1.57
  -4  13 -10   -0.31    1.61
   9   4 -10    2.24    1.66
 -13   9 -10   -0.97    1.58
 -13   4 -10   -0.01    1.43
  13  -4 -10    0.28    1.76
  -9  -4 -10    0.95    1.41
  13  -9 -10    0.66    1.38
  -4  -9 -10    1.14    1.48
   9 -13 -10   -1.42    1.46
   4 -13 -10    1.07    1.64
   9 -13  11   -1.52    1.71
   4 -13  11    1.11    1.80
  -4  -9  11    0.30    1.67
  -9  -4  11    2.54    1.66
  13  -9  11    1.46    1.75
  13  -4  11    1.44    2.08
 -13   4  11    1.69    1.80
   9   4  11    0.46    2.38
 -13   9  11    0.77    2.01
   4   9 -11   -0.13    1.61
   9 -13 -11    1.48    2.05
   9   4 -11    0.91    1.73
  13  -9 -11   -0.18    2.08
  13  -4 -11    1.96    1.93
  -9  13 -11    1.30    1.80
  -4  13 -11   -0.93    1.09
   4   9 -11   -0.17    1.74
   9   4 -11   -0.50    1.93
 -13   9 -11   -0.97    1.78
 -13   4 -11    1.06    1.69
  13  -4 -11    3.29    2.72
  -9  -4 -11   -0.54    1.61
  13  -9 -11    1.53    1.55
  -4  -9 -11    0.47    0.99
   9 -13 -11   -0.25    1.62
   4 -13 -11   -0.13    1.83
  -5  -9   0   36.60    1.94
  -9  -5   0   47.19    2.09
  -5  -9   0   46.79    1.80
  14  -9   0   42.12    1.23
 -14   5   1   23.93    1.25
   9 -14   1   25.52    1.68
  -5  -9   1   23.34    1.33
  -9  -5   1   24.68    1.31
  14  -9   1   23.70    1.18
  -5  -9  -1   21.03    1.00
 -14   9  -1   22.08    2.03
   9 -14  -1   27.27    1.68
  -9  -5   2   11.22    1.28
 -14   5   2   11.41    1.53
 -14   9   2   12.88    1.29
   5 -14   2   12.14    1.50
   9 -14   2   16.23    1.41
  -5  -9   2   12.53    1.10
  -9  -5   2   11.30    1.13
  14  -9   2   11.24    1.06
  -5  -9  -2   10.68    0.76
  -9  -5  -2   10.43    1.25
 -14   5  -2   10.59    1.76
 -14   9  -2   12.00    1.53
   5   9  -2    9.01    1.03
   9   5  -2   10.15    1.41
  -5  14  -2   14.92    1.03
   9 -14  -2   15.42    1.44
  -5  -9  -2   12.14    1.06
  14  -9  -2   10.29    0.75
  -9  -5  -2    9.30    1.03
  -5  -9  -2   12.39    1.22
   9 -14  -2   13.79    1.44
  -9  -5   3   14.23    1.40
 -14   9   3   12.25    1.42
 -14   5   3   16.92    1.69
   5 -14   3   15.42    1.64
   9 -14   3   16.60    1.48
  -5  -9   3   13.82    1.22
  -9  -5   3   12.77    1.07
  14  -9   3   12.50    1.07
  -5  -9  -3   12.08    1.14
   5   9  -3   11.19    1.70
  -9  -5  -3   16.84    1.41
   9   5  -3   14.37    1.61
 -14   9  -3   14.84    1.79
  14  -5  -3   15.74    1.11
 -14   5  -3   17.63    1.90
  14  -9  -3   14.36    1.48
  -5  14  -3   16.39    1.15
   5 -14  -3   15.73    1.66
   9 -14  -3   14.89    1.56
  -9  14  -3   17.02    1.68
 -14   9  -3   11.62    1.10
  -5  -9  -3   14.45    1.22
   5   9  -3   15.32    1.39
  14  -9  -3   11.04    1.24
  -9  -5  -3   11.94    1.03
  -5  -9  -3   14.42    1.25
   9 -14  -3   17.37    1.63
   5 -14  -3   17.46    1.17
 -14   5   4   11.44    1.58
 -14   9   4   10.64    1.31
   5 -14   4   11.98    1.52
   9 -14   4    9.61    1.38
  -5  -9   4    9.49    1.23
  -9  -5   4    8.73    1.37
  14  -9   4    8.68    1.14
  14  -5   4    6.85    1.09
   5   9  -4    7.27    1.42
   9   5  -4    8.80    1.60
  -9  -5  -4   11.90    1.38
  14  -5  -4   10.25    1.58
  -5  -9  -4    7.22    0.89
  14  -9  -4   10.79    1.46
 -14   5  -4   11.66    1.84
   5 -14  -4   12.41    1.57
   9 -14  -4   10.41    1.45
  -5  -9  -4   10.01    1.21
   9   5  -4    6.77    0.99
  -5  14  -4   11.80    1.04
  -9  14  -4   11.45    1.02
   5   9  -4   10.92    1.34
 -14   9  -4    6.53    1.35
  14  -5  -4    8.14    1.00
  14  -9  -4    7.44    1.00
  -9  -5  -4    7.83    1.04
  -5  -9  -4    8.71    1.20
   9 -14  -4   10.57    1.45
   5 -14  -4   12.37    1.73
 -14   5   5   18.22    1.92
   5 -14   5   19.75    1.96
   9 -14   5   19.83    1.78
  -5  -9   5   16.91    1.62
  -9  -5   5   15.48    1.88
  14  -9   5   12.87    1.67
  14  -5   5   13.50    2.08
   5   9  -5   18.14    2.11
   9   5  -5   20.56    2.12
  14  -5  -5   21.08    1.94
  14  -9  -5   18.75    1.89
  -9  -5  -5   22.36    1.94
  -5  14  -5   23.11    2.06
  -9  14  -5   20.81    2.00
   5   9  -5   20.22    1.80
   9   5  -5   15.90    1.50
 -14   9  -5   14.70    1.50
  14  -5  -5   11.85    1.66
  14  -9  -5   14.42    1.48
  -9  -5  -5   14.20    1.87
  -5  -9  -5   16.63    1.59
   9 -14  -5   18.47    1.23
   5 -14  -5   20.43    2.00
   5 -14   6    3.54    1.49
   9 -14   6    6.70    1.35
  -5  -9   6    4.60    1.27
  -9  -5   6    3.74    1.15
  14  -9   6    4.53    1.32
  14  -5   6    3.81    1.50
 -14   5   6    1.89    1.28
   5   9  -6    4.50    1.80
   9   5  -6    4.67    1.65
  14  -5  -6    4.67    1.46
  14  -9  -6    4.46    1.46
  -5  14  -6    5.87    1.57
  -9  14  -6    7.03    1.53
   5   9  -6    4.49    1.42
   9   5  -6    5.25    1.65
 -14   9  -6    3.57    1.14
 -14   5  -6    2.81    0.95
  14  -5  -6    3.12    1.15
  14  -9  -6    4.57    1.13
  -9  -5  -6    3.09    1.15
  -5  -9  -6    3.26    1.24
   5 -14  -6    7.46    1.57
   9 -14  -6    5.16    1.35
   5 -14   7    9.01    1.72
   9 -14   7    8.12    1.58
  -5  -9   7    7.56    1.49
  -9  -5   7    6.70    1.84
  14  -9   7    5.64    1.64
  14  -5   7    4.67    1.90
 -14   5   7    5.56    1.84
   5   9  -7    8.76    2.15
   9   5  -7    8.53    1.86
   9 -14  -7    4.20    1.27
  14  -5  -7    6.92    1.07
  14  -9  -7    8.17    1.75
  -5  14  -7    8.98    1.78
  -9  14  -7    9.73    1.77
   5   9  -7    8.62    1.65
   9   5  -7    7.82    1.66
 -14   9  -7    7.51    1.47
 -14   5  -7    5.10    1.29
  14  -5  -7    8.00    1.62
  14  -9  -7    6.14    1.84
  -9  -5  -7    4.92    1.39
  -5  -9  -7    7.26    1.47
   5 -14  -7    8.84    1.77
   9 -14  -7    6.86    1.56
   5 -14   8    6.64    1.61
   9 -14   8    3.32    1.49
  -5  -9   8    4.20    1.42
  -9  -5   8    2.54    1.40
  14  -9   8    3.16    1.56
  14  -5   8    2.03    1.80
 -14   5   8    2.25    1.46
   5 -14  -8    1.98    1.31
   5   9  -8    0.22    1.99
   9   5  -8    3.22    1.09
   9 -14  -8    2.76    1.47
  14  -5  -8    5.35    1.65
  14  -9  -8    3.11    1.73
  -5  14  -8    3.61    1.68
  -9  14  -8    5.36    1.63
   5   9  -8    3.01    1.62
   9   5  -8    5.89    1.65
 -14   9  -8    2.40    1.89
 -14   5  -8    2.33    1.29
  14  -5  -8    6.08    1.68
  14  -9  -8    2.55    1.39
  -9  -5  -8    3.59    1.35
  -5  -9  -8    2.65    1.44
   5 -14  -8    5.68    1.76
   9 -14  -8    5.10    1.51
   5 -14   9    3.65    1.79
   9 -14   9    4.56    1.63
  -5  -9   9    2.71    1.58
  -9  -5   9    2.88    1.52
  14  -9   9    4.23    1.75
  14  -5   9    1.20    1.89
 -14   5   9    1.86    1.63
   5 -14  -9    3.11    1.52
   5   9  -9    3.14    1.99
   9 -14  -9    1.72    1.65
   9   5  -9    0.87    1.84
  14  -9  -9    1.94    1.91
  14  -5  -9    3.54    1.14
  -5  14  -9    1.93    1.12
  -9  14  -9    3.98    1.80
   5   9  -9    1.64    1.73
   9   5  -9    5.32    1.86
 -14   9  -9    2.60    1.64
 -14   5  -9    3.21    1.50
  14  -5  -9    4.59    1.95
  14  -9  -9    4.35    1.54
  -9  -5  -9    4.00    1.50
  -5  -9  -9    2.47    1.56
   9 -14  -9    3.62    1.64
   5 -14  -9    1.44    1.81
   5 -14  10   -0.65    1.80
   9 -14  10   -0.47    1.65
  -5  -9  10    5.03    1.62
  -9  -5  10    2.11    1.54
  14  -9  10    0.44    1.80
  14  -5  10    1.06    1.98
 -14   5  10   -1.22    1.76
   9   5  10    1.95    2.40
 -14   9  10    0.48    1.88
   5 -14 -10    1.33    2.23
   5   9 -10    2.08    1.78
   9   5 -10    1.41    1.74
   9 -14 -10    0.46    2.45
  14  -5 -10    1.03    1.92
  14  -9 -10    2.89    2.02
  -5  14 -10    2.19    1.80
  -9  14 -10    1.33    1.80
   5   9 -10    0.49    1.12
   9   5 -10    1.91    1.89
 -14   9 -10    3.52    1.72
 -14   5 -10    0.92    1.57
  14  -5 -10    2.66    1.99
  14  -9 -10    3.72    1.54
  -9  -5 -10    0.44    1.54
  -5  -9 -10    1.97    1.58
   9 -14 -10    0.21    0.99
   5 -14 -10    2.39    1.83
   5 -14  11    1.52    2.00
   9 -14  11    3.57    1.98
  -5  -9  11    2.82    1.88
  -9  -5  11    3.90    1.87
  14  -9  11    3.62    2.10
  14  -5  11    0.61    3.33
 -14   5  11    3.47    2.13
 -14   9  11    0.80    2.37
   9   5  11    5.21    2.85
   5 -14 -11    1.69    2.76
   5   9 -11    1.47    1.92
   9   5 -11    4.51    1.97
   9 -14 -11    1.83    2.35
  14  -5 -11    1.89    2.19
  14  -9 -11    5.97    2.41
  -5  14 -11    4.77    2.04
  -9  14 -11    3.90    2.12
   5   9 -11    1.33    2.09
   9   5 -11    2.01    2.24
 -14   9 -11    3.85    2.74
 -14   5 -11    1.82    1.93
  14  -5 -11    2.58    2.34
  -9  -5 -11    1.61    1.77
  14  -9 -11    3.23    1.83
  -5  -9 -11    1.43    1.78
   9 -14 -11    1.68    1.91
   5 -14 -11    4.59    2.05
  -6  -9   0   11.97    1.21
  -9  -6   0   13.74    1.23
 -15   9   0   14.17    1.57
   6 -15   0   17.89    1.65
  -6  -9   0   12.99    1.03
  -9  -6   0   14.53    0.82
  15  -9   0   16.19    0.82
  -9  -6   0   13.84    0.81
  -6  -9   1   -0.02    0.64
  -9  -6   1    0.40    0.87
 -15   6   1    0.95    0.71
 -15   9   1    1.21    1.04
   6 -15   1    1.03    0.67
  -6  -9   1    1.37    0.73
  -9  -6   1    0.50    0.55
  15  -9   1    1.66    0.63
  15  -9   1    0.30    0.42
  -6  -9  -1    0.66    0.57
  -9  -6  -1    0.92    0.80
  -9  15  -1    0.35    0.31
 -15   9  -1    1.19    1.14
   9 -15  -1    0.85    0.65
  -6  -9  -1    1.16    0.67
  -9  -6  -1    0.70    0.49
  15  -9  -1    0.42    0.44
  -9  -6  -1    1.09    0.52
  -9  -6   2    1.85    0.97
 -15   6   2    2.01    1.24
 -15   9   2    2.19    1.08
   6 -15   2    1.89    1.21
   9 -15   2    4.64    1.14
  -6  -9   2    3.35    0.82
  -9  -6   2    2.77    0.70
  15  -9   2    3.76    0.86
  -6  -9  -2    2.33    0.82
  -9  -6  -2    2.70    0.89
 -15   6  -2    3.69    1.40
 -15   9  -2    4.04    1.26
  -9  15  -2    1.36    0.49
   6   9  -2    2.95    0.85
   9   6  -2    3.42    1.11
   9 -15  -2    4.32    1.16
  -6  -9  -2    1.78    0.77
  -9  -6  -2    2.22    0.73
  15  -9  -2    2.00    0.45
  15  -9  -2    3.16    0.75
  -9  -6  -2    2.90    0.62
  -6  -9  -2    2.50    1.15
   9 -15  -2    3.23    1.22
   6 -15  -2    4.57    0.87
  -9  -6   3    0.39    0.90
 -15   9   3   -0.02    0.99
 -15   6   3    1.51    1.18
   6 -15   3    0.66    1.13
   9 -15   3    0.55    1.05
  -6  -9   3    0.14    0.82
  -9  -6   3    0.18    0.92
  15  -9   3    0.39    0.96
  -6  -9  -3    0.63    0.59
  -9  -6  -3   -0.04    0.88
   9   6  -3    0.10    1.09
 -15   6  -3    0.31    1.34
   6   9  -3    0.48    0.89
 -15   9  -3   -1.11    1.28
  15  -6  -3    1.14    1.16
   6   9  -3   -0.38    0.88
  -9  15  -3   -0.05    1.20
  -6  15  -3    0.29    1.25
  -9  -6  -3    1.05    0.74
   9 -15  -3    1.05    1.12
  -6  -9  -3    0.40    0.76
   6 -15  -3   -0.34    1.16
  15  -9  -3   -0.29    0.45
  15  -9  -3    1.17    0.62
  -9  -6  -3    0.32    0.85
  -6  -9  -3    0.51    0.78
   6 -15  -3    0.55    1.31
   9 -15  -3    1.74    1.11
 -15   6   4    7.56    1.47
 -15   9   4    5.20    1.27
   9 -15   4    6.38    1.34
   6 -15   4    6.87    1.42
  -6  -9   4    6.38    1.09
  -9  -6   4    5.17    0.99
  15  -9   4    3.66    1.47
  15  -6   4    4.46    0.97
   6   9  -4    6.35    1.31
   9   6  -4    7.98    1.49
  -6  -9  -4    4.40    1.09
  -9  -6  -4    6.61    1.17
  15  -9  -4    5.61    1.39
 -15   6  -4    6.82    1.82
  15  -6  -4    5.25    1.49
 -15   9  -4    5.60    1.61
  -9  -6  -4    4.62    0.82
   9 -15  -4    6.26    1.42
  -6  -9  -4    6.28    1.06
   6 -15  -4    5.21    1.44
   9   6  -4    5.53    0.93
  -9  15  -4    7.36    1.48
 -15   9  -4    4.01    0.98
   6   9  -4    7.29    1.20
  -6  15  -4    7.83    1.59
  15  -6  -4    3.15    0.89
  15  -9  -4    5.01    0.96
  -9  -6  -4    4.36    0.93
  -6  -9  -4    4.59    1.03
   9 -15  -4    5.90    1.36
   6 -15  -4    7.28    1.64
 -15   6   5    0.86    1.24
   9 -15   5    1.35    0.75
   6 -15   5   -0.06    1.31
  -6  -9   5    0.09    1.02
  -9  -6   5    1.03    0.92
  15  -9   5   -1.32    1.46
  15  -6   5    0.08    1.38
   6   9  -5    1.70    1.38
   9   6  -5    0.10    1.38
  15  -6  -5    1.10    1.32
  -6  -9  -5    2.18    0.78
  15  -9  -5    0.83    1.24
  -9  -6  -5   -0.42    1.13
 -15   6  -5    0.96    0.96
   9 -15  -5   -0.27    1.27
   6 -15  -5   -0.48    1.30
  -9  15  -5   -0.41    1.32
  -6  15  -5   -0.15    1.36
   9   6  -5    0.87    1.25
   6   9  -5    0.32    1.12
 -15   9  -5    2.21    0.90
 -15   6  -5    0.09    0.86
  15  -6  -5    1.60    1.00
  15  -9  -5    0.89    0.92
  -9  -6  -5    1.58    0.92
  -6  -9  -5    0.65    0.96
   9 -15  -5    0.15    1.24
   6 -15  -5    0.77    1.36
   9 -15   6    4.17    1.41
   6 -15   6    2.52    1.47
  -6  -9   6    2.08    1.23
  -9  -6   6    3.62    1.14
  15  -9   6    4.39    1.37
  15  -6   6    4.14    1.98
   6   9  -6    5.18    1.85
   9   6  -6    2.41    1.71
  15  -6  -6    1.65    1.54
  15  -9  -6    5.04    1.49
  -6  -9  -6    3.69    1.09
  -9  -6  -6    3.10    1.45
  -9  15  -6    3.19    1.60
  -6  15  -6    4.63    0.98
   6   9  -6    5.18    1.37
   9   6  -6    5.36    1.69
 -15   9  -6    3.44    1.50
 -15   6  -6    2.24    1.22
  15  -6  -6    3.05    1.55
  15  -9  -6    2.16    1.62
  -9  -6  -6    2.77    1.19
  -6  -9  -6    3.04    1.18
   9 -15  -6    3.18    1.40
   6 -15  -6    3.15    1.57
   9 -15   7    1.03    1.31
   6 -15   7   -0.19    1.43
  -6  -9   7   -0.97    1.16
  -9  -6   7    2.15    1.13
  15  -9   7   -0.22    1.78
  15  -6   7    0.08    2.03
 -15   6   7    0.69    1.09
   6 -15  -7    0.00    0.49
   6   9  -7    0.54    1.82
   9   6  -7    0.65    1.62
   9 -15  -7   -0.40    0.72
  15  -6  -7    0.22    1.41
  15  -9  -7   -0.06    1.42
  -9  15  -7    1.05    1.44
  -6  15  -7   -0.92    1.48
   6   9  -7    0.84    1.36
   9   6  -7    0.84    1.32
 -15   9  -7    1.73    1.49
 -15   6  -7    1.09    1.34
  15  -6  -7    0.05    1.78
  15  -9  -7    1.45    1.18
  -9  -6  -7    1.00    1.10
  -6  -9  -7    1.01    1.53
   9 -15  -7   -0.11    1.31
   6 -15  -7   -0.69    1.44
   9 -15   8    2.73    1.50
   6 -15   8    1.45    1.55
  -6  -9   8   -0.29    1.35
  -9  -6   8    1.58    1.35
  15  -9   8    3.12    1.61
  15  -6   8    2.90    1.70
 -15   6   8    3.25    1.77
   6   9  -8    1.55    2.04
   6 -15  -8    0.64    0.87
   9   6  -8    2.55    1.77
   9 -15  -8    0.90    1.09
  15  -9  -8    1.04    1.65
  15  -6  -8    1.50    1.00
  -9  15  -8    2.22    1.65
  -6  15  -8    2.34    1.00
   9   6  -8    4.09    1.68
   6   9  -8    2.75    1.59
 -15   9  -8   -1.62    1.40
 -15   6  -8   -1.97    1.25
  15  -6  -8    1.56    2.19
  15  -9  -8    0.52    1.37
  -9  -6  -8    2.15    1.27
  -6  -9  -8    0.84    1.29
   9 -15  -8    2.11    1.49
   6 -15  -8    2.76    1.60
   9 -15   9   -0.14    1.50
   6 -15   9    0.31    1.58
  -6  -9   9   -0.07    1.41
  -9  -6   9    2.36    1.38
  15  -9   9    0.03    1.69
  15  -6   9    0.82    1.73
 -15   6   9   -0.14    1.49
   6   9  -9   -0.02    1.90
   9   6  -9    0.16    1.06
   9 -15  -9    0.45    1.33
  15  -6  -9   -1.86    1.67
  15  -9  -9   -1.02    1.74
  -6  15  -9   -1.02    1.67
  -9  15  -9    0.11    1.63
   6   9  -9   -2.75    1.66
   9   6  -9   -0.30    1.77
 -15   9  -9   -0.09    1.95
 -15   6  -9   -0.61    1.78
  15  -6  -9    3.16    1.73
  15  -9  -9   -0.69    1.87
  -9  -6  -9    0.17    1.34
  -6  -9  -9   -0.38    1.35
   9 -15  -9   -0.61    1.52
   6 -15  -9   -0.41    1.65
   9 -15  10    0.68    1.76
   6 -15  10   -0.05    1.89
  -6  -9  10    2.31    1.69
  -9  -6  10    1.26    1.63
  15  -9  10    2.46    2.06
  15  -6  10    1.14    2.20
 -15   6  10    1.83    1.91
   6   9 -10    2.25    1.97
   9   6 -10    1.30    1.86
   9 -15 -10    0.86    1.41
  15  -6 -10    3.20    2.02
  15  -9 -10   -0.10    2.15
  -9  15 -10    1.77    1.94
  -6  15 -10    2.62    1.89
   9   6 -10    3.44    2.16
   6   9 -10    0.45    1.95
 -15   9 -10    2.82    1.81
 -15   6 -10    3.27    1.67
  15  -6 -10    2.07    2.09
  15  -9 -10    3.54    1.66
  -9  -6 -10    2.41    1.60
  -6  -9 -10    1.84    1.56
   9 -15 -10   -1.38    1.77
   6 -15 -10    1.80    1.92
  -7  -9   0   10.67    1.31
  -9  -7   0   12.55    1.21
  -7  -9   0   12.90    1.00
  -9  -7   0   12.79    0.88
  16  -9   0   13.86    0.80
  16  -9   0   12.78    0.75
  -7  -9   1    2.15    0.78
  -7  -9   1    3.37    0.79
  -9  -7   1    2.48    0.66
  16  -9   1    2.68    0.70
  -7  -9  -1    2.82    0.70
  -9  -7  -1    4.55    0.89
 -16   9  -1    1.68    1.36
 -16   7  -1    3.11    0.91
  -7  -9  -1    5.27    0.76
  -9  -7  -1    3.88    0.82
  16  -9  -1    2.71    0.44
  16  -9  -1    2.47    0.57
  -9  -7  -1    2.46    0.64
  -9  -7   2    2.36    0.95
 -16   7   2    1.98    1.30
 -16   9   2    1.86    1.17
   9 -16   2    3.29    1.23
  -7  -9   2    1.79    0.82
  -9  -7   2    1.78    0.97
  16  -9   2    1.34    0.83
  -7  -9  -2    1.52    0.89
  -9  -7  -2    2.54    0.88
 -16   7  -2    3.28    0.87
 -16   9  -2    3.92    1.37
   7   9  -2    1.36    0.89
   9   7  -2    3.13    1.07
  -9  -7  -2    1.85    0.60
  -7  -9  -2    1.18    0.74
  16  -9  -2    1.84    0.92
  -9  -7  -2    2.04    0.85
  -7  -9  -2    3.17    0.81
   7 -16  -2    3.65    1.41
 -16   9   3    0.26    1.11
 -16   7   3    0.56    1.22
   7 -16   3    0.69    1.24
   9 -16   3    0.27    1.16
  -7  -9   3    1.03    1.12
  -9  -7   3    1.64    0.78
  16  -9   3    0.98    1.01
  -7  -9  -3    0.76    0.68
  -9  -7  -3    0.84    0.88
   7   9  -3   -0.37    0.98
 -16   7  -3   -0.55    1.47
 -16   9  -3    0.39    1.38
   9   7  -3    1.50    1.15
  -9  16  -3   -0.35    1.30
  -7  16  -3    1.77    1.34
   9 -16  -3    0.24    1.21
   7 -16  -3    1.36    1.29
  -9  -7  -3    1.58    0.61
  -7  -9  -3    0.10    0.75
  16  -9  -3    0.36    0.39
  16  -9  -3    0.32    0.70
  -9  -7  -3    1.15    0.66
  -7  -9  -3    0.95    0.77
   9 -16  -3   -0.58    1.25
   7 -16  -3    2.73    1.36
 -16   7   4    1.88    1.37
 -16   9   4    3.02    1.21
   9 -16   4    0.70    1.25
   7 -16   4    2.49    1.33
  -7  -9   4    2.38    0.96
  -9  -7   4    2.54    0.91
  16  -9   4    1.80    1.00
  16  -7   4    0.82    0.95
  16  -7   4    0.81    0.89
  -9  -7  -4    3.27    1.36
  -7  -9  -4    0.87    0.78
   7   9  -4    0.92    1.26
   9   7  -4   -0.07    1.36
 -16   7  -4    1.22    1.65
 -16   9  -4    2.13    0.97
  16  -9  -4    2.89    1.34
  16  -7  -4    2.11    1.38
  -9  -7  -4    1.62    0.73
   9   7  -4    2.31    0.88
  -9  16  -4    2.18    0.87
   9 -16  -4    3.14    1.32
  -7  -9  -4    3.21    0.90
   7   9  -4    2.82    1.08
  -7  16  -4    3.00    0.92
   7 -16  -4    2.65    1.36
 -16   9  -4    0.92    0.69
  16  -9  -4    0.98    0.49
  16  -7  -4    1.84    0.79
  16  -9  -4    0.72    1.23
  -9  -7  -4    1.35    0.81
  -7  -9  -4    1.89    0.89
   9 -16  -4    1.55    1.34
   7 -16  -4    2.53    1.54
 -16   7   5    3.02    1.33
 -16   9   5    1.39    0.73
   9 -16   5    0.69    1.32
   7 -16   5    1.29    1.40
  -7  -9   5    1.81    1.06
  -9  -7   5   -0.51    1.33
  16  -9   5    0.86    1.50
  16  -7   5    1.45    1.46
   7   9  -5    0.76    1.47
   9   7  -5    1.75    1.53
  -9  -7  -5    2.22    1.50
  -7  -9  -5    0.48    0.88
  16  -7  -5    3.73    1.36
  16  -9  -5    1.37    1.37
 -16   9  -5   -0.47    1.66
  -9  -7  -5    1.25    0.85
  -7  -9  -5    0.82    1.00
   9 -16  -5    2.73    1.37
   7 -16  -5    2.74    1.39
   9   7  -5    0.91    1.37
  -9  16  -5    2.36    1.46
   7   9  -5    1.88    1.18
  -7  16  -5    1.61    1.50
 -16   9  -5    0.58    0.97
 -16   7  -5    0.77    0.55
  16  -7  -5    0.86    1.05
  16  -9  -5    2.35    1.40
  -9  -7  -5    0.27    0.92
  -7  -9  -5    1.34    0.94
   9 -16  -5    0.87    1.36
   7 -16  -5    0.82    1.41
   9 -16   6    0.60    1.41
   7 -16   6    0.96    1.46
  -7  -9   6    0.83    1.18
  -9  -7   6    0.27    1.10
  16  -9   6    0.76    1.38
  16  -7   6    2.37    1.91
   7   9  -6    1.81    1.78
   9   7  -6    1.93    1.72
  16  -7  -6    1.51    1.47
  16  -9  -6    1.87    1.46
  -9  -7  -6    1.58    1.33
  -7  -9  -6    1.73    1.05
   7 -16  -6    1.55    0.88
  -7  16  -6    2.82    1.52
   9   7  -6    0.04    1.24
  -9  16  -6    2.12    1.52
   7   9  -6    2.25    1.37
 -16   9  -6    1.22    1.07
 -16   7  -6    0.36    1.14
  16  -7  -6    2.49    1.59
  16  -9  -6    1.13    1.24
  -9  -7  -6    0.22    1.04
  -7  -9  -6    0.35    1.07
   9 -16  -6    1.48    1.39
   7 -16  -6    0.22    1.51
   9 -16   7   -0.10    1.39
   7 -16   7    0.21    1.44
  -7  -9   7    0.48    1.22
  -9  -7   7    0.88    1.57
  16  -9   7   -2.12    1.97
  16  -7   7    0.21    2.07
   9   7  -7    3.02    1.77
   7   9  -7   -0.12    1.93
  16  -7  -7    0.16    1.51
  16  -9  -7   -1.76    1.52
  -9  -7  -7    0.80    1.46
  -9  16  -7    1.76    1.50
  -7  16  -7    0.36    0.90
   9   7  -7    0.08    1.90
   7   9  -7   -0.23    1.44
 -16   9  -7   -0.90    1.15
 -16   7  -7   -0.05    1.02
  16  -7  -7   -0.16    1.41
  16  -9  -7    0.28    1.72
  -9  -7  -7    0.69    1.13
  -7  -9  -7   -1.08    1.11
   9 -16  -7    1.24    1.41
   7 -16  -7    1.10    1.51
   9 -16   8    1.51    1.59
   7 -16   8   -0.24    1.63
  -7  -9   8    0.72    1.39
  -9  -7   8    0.71    1.40
  16  -9   8   -1.27    1.85
  16  -7   8    2.71    2.30
   7   9  -8    3.16    2.25
   9   7  -8    1.21    2.01
  16  -7  -8    0.90    1.72
  16  -9  -8    3.07    1.76
  -9  16  -8    2.84    1.74
   7   9  -8    2.91    1.75
  -7  16  -8    4.80    1.71
   9   7  -8    0.48    1.78
 -16   9  -8    1.00    1.84
 -16   7  -8   -1.67    1.30
  16  -7  -8    1.43    2.21
  16  -9  -8    0.73    1.54
  -9  -7  -8    2.23    1.29
  -7  -9  -8    0.17    1.29
   9 -16  -8   -0.19    1.63
   7 -16  -8    0.60    1.67
   7 -16   9   -0.39    1.64
   9 -16   9    0.17    1.65
  -7  -9   9    0.00    1.48
  -9  -7   9    1.36    1.49
  16  -9   9   -1.49    2.65
  16  -7   9    1.86    1.96
 -16   7   9   -2.01    1.82
   9   7  -9    2.55    2.00
   7   9  -9   -0.25    2.20
  16  -9  -9   -1.19    1.84
  16  -7  -9   -0.71    1.81
  -9  16  -9   -0.09    1.09
  -7  16  -9    0.26    1.10
   9   7  -9   -1.32    2.00
   7   9  -9   -0.78    1.87
 -16   9  -9    1.71    1.53
 -16   7  -9    1.03    1.45
  16  -7  -9    0.95    2.45
  16  -9  -9    2.65    1.55
  -9  -7  -9   -1.05    1.40
  -7  -9  -9    2.09    1.37
   9 -16  -9    1.71    1.64
   7 -16  -9   -0.78    1.74
  -8  -9   0   17.92    1.66
  -9  -8   0   19.29    1.42
  -8  -9   0   19.83    1.19
  -9  -8   0   20.60    1.14
  -9  -8   0   18.94    1.15
  -8  -9   0   21.16    1.26
  -9  -8   1    3.78    1.08
  -8  -9   1    4.60    0.95
  -9  -8   1    5.80    0.82
  -8  -9   1    9.43    0.90
  -8  -9  -1    5.44    0.90
 -17   9  -1   10.81    1.75
  -9  -8  -1    6.86    0.77
  -8  -9  -1    6.43    0.84
  -8  -9  -1    8.19    0.93
  -9  -8  -1    5.75    0.79
  -9  -8   2    7.61    1.13
 -17   9   2    9.71    1.53
 -17   8   2    9.98    1.58
   8 -17   2    8.93    1.58
  -8  -9   2    6.33    0.97
  -9  -8   2    8.31    1.22
  -9  -8  -2    7.41    1.37
  -8  -9  -2    7.36    0.91
 -17   8  -2    6.55    1.86
 -17   9  -2    5.31    1.82
  -9  -8  -2    6.77    0.79
  -9  -8  -2    6.64    0.84
  -8  -9  -2    5.19    1.23
 -17   8   3    3.99    1.48
 -17   9   3    2.59    1.40
   9 -17   3    3.35    1.44
   8 -17   3    6.61    1.46
  -8  -9   3    3.63    0.97
  -9  -8   3    4.28    0.93
  17  -9   3    3.62    1.07
  -9  -8  -3    3.85    0.98
  -8  -9  -3    2.86    0.86
 -17   8  -3    4.08    1.78
 -17   9  -3    6.10    1.72
   9   8  -3    4.81    1.33
   8   9  -3    3.95    1.61
  -9  -8  -3    2.41    0.78
   9 -17  -3    5.10    1.49
  -8  -9  -3    3.45    0.86
   8 -17  -3    4.17    1.53
  17  -9  -3    3.06    0.95
  -9  -8  -3    3.28    1.06
  -8  -9  -3    3.17    0.87
   9 -17  -3    6.85    1.60
   8 -17  -3    4.82    1.66
 -17   8   4    6.59    1.64
 -17   9   4    6.09    1.55
   9 -17   4    7.36    1.62
   8 -17   4    7.38    1.59
  -9  -8   4    5.76    1.17
  -8  -9   4    4.45    1.17
  17  -9   4    4.44    1.61
  -9  -8  -4    7.40    1.17
  -8  -9  -4    6.27    1.35
   8   9  -4    5.87    1.56
 -17   8  -4    9.50    2.02
 -17   9  -4   10.48    1.93
   9   8  -4    6.78    1.64
  17  -9  -4    8.22    1.66
  17  -8  -4    7.54    1.66
   9   8  -4    6.53    1.12
   8   9  -4    6.47    1.27
  -9  17  -4    8.11    1.77
  -8  17  -4    9.94    1.79
   9 -17  -4    9.83    1.70
  -8  -9  -4    5.40    1.38
   8 -17  -4    8.40    1.71
  -9  -8  -4    3.27    1.25
  17  -9  -4    4.87    1.48
  -9  -8  -4    4.40    0.99
  -8  -9  -4    5.31    1.04
   9 -17  -4   10.68    1.71
   8 -17  -4    7.91    1.90
 -17   8   5    6.39    1.67
 -17   9   5    7.15    1.53
   9 -17   5    7.29    1.71
   8 -17   5   10.39    1.77
  -8  -9   5    7.34    1.38
  -9  -8   5    6.49    1.37
  17  -9   5    4.51    1.37
  17  -8   5    5.91    1.90
  -9  -8  -5    9.26    1.40
  -8  -9  -5    6.17    1.60
   8   9  -5    9.39    2.56
   9   8  -5    8.93    2.03
 -17   8  -5   10.21    2.23
  17  -8  -5    9.46    1.16
  17  -9  -5    9.89    1.81
  -9  -8  -5    6.21    1.52
   9   8  -5    5.67    1.43
  -9  17  -5   11.51    1.94
   9 -17  -5    8.61    1.80
  -8  -9  -5    6.95    1.66
   8   9  -5    5.71    1.55
  -8  17  -5    9.66    1.94
   8 -17  -5   10.95    1.81
  17  -8  -5    4.96    1.35
  17  -9  -5    5.76    1.46
  -8  -9  -5    5.97    1.19
  -9  -8  -5    4.42    1.17
   9 -17  -5    8.47    1.76
   8 -17  -5    7.05    1.83
   9 -17   6    6.44    1.61
   8 -17   6    5.15    1.63
  -8  -9   6    1.41    1.77
  -9  -8   6    2.28    1.29
  17  -9   6    3.88    1.94
  17  -8   6    1.00    1.70
   9   8  -6    3.74    2.04
   8   9  -6    4.01    2.07
  -9  -8  -6    1.98    1.39
  17  -8  -6    4.76    1.67
  17  -9  -6    2.82    1.71
 -17   9  -6    3.71    2.04
   9 -17  -6    3.93    1.69
  -8  -9  -6    3.12    1.32
   8 -17  -6    3.91    1.70
   9   8  -6    3.66    1.49
  -9  17  -6    4.82    1.10
   8   9  -6    4.20    1.55
  -8  17  -6    3.53    1.10
 -17   9  -6    2.48    0.95
 -17   8  -6    0.48    1.08
  17  -8  -6    0.73    1.43
  17  -9  -6    1.17    1.90
  -9  -8  -6    1.86    1.13
  -8  -9  -6    3.39    1.17
   9 -17  -6    5.61    1.67
   8 -17  -6    3.39    1.73
   9 -17   7    4.04    1.67
   8 -17   7    2.54    1.70
  -8  -9   7    2.27    1.42
  -9  -8   7    2.09    1.41
  17  -9   7    2.82    1.88
  17  -8   7    2.81    2.01
   9   8  -7    9.24    2.31
   8   9  -7    5.49    2.36
  17  -8  -7    2.92    1.80
  17  -9  -7    3.96    1.83
  -8  -9  -7    4.15    1.49
   9   8  -7    3.49    1.79
  -9  17  -7    3.23    1.85
   8   9  -7    1.23    2.41
  -8  17  -7    3.81    1.85
 -17   8  -7    1.66    1.56
 -17   9  -7    1.87    1.33
  17  -8  -7    0.63    1.72
  17  -9  -7    3.33    2.15
  -9  -8  -7    2.42    1.26
  -8  -9  -7    3.16    1.26
   9 -17  -7    2.40    1.74
   8 -17  -7    4.10    1.76
   9 -17   8    3.05    1.71
   8 -17   8    0.93    1.75
  -8  -9   8    1.11    1.52
  -9  -8   8    1.13    1.51
  17  -9   8    3.97    2.15
  17  -8   8    2.81    2.41
   9   8  -8    4.66    2.44
   8   9  -8    2.27    2.60
  17  -8  -8    5.09    1.89
  17  -9  -8    1.13    1.94
  -9  17  -8    1.15    1.18
  -8  17  -8    1.79    1.15
   9   8  -8   -0.30    2.04
   8   9  -8    3.39    1.98
 -17   9  -8    0.96    1.64
 -17   8  -8   -0.25    2.04
  17  -8  -8    1.82    1.79
  17  -9  -8    3.58    1.71
  -9  -8  -8    3.80    1.36
  -8  -9  -8    0.19    1.35
   9 -17  -8    2.31    1.70
   8 -17  -8    1.48    1.78
   8 -17   9    0.45    1.86
   9 -17   9    1.38    1.84
  -9  -8   9    0.35    1.64
  -8  -9   9    2.54    1.62
  17  -9   9   -0.99    3.33
  17  -8   9    0.03    3.35
   9   8  -9    2.86    2.46
   8   9  -9    2.63    2.65
  17  -8  -9   -0.57    2.06
  17  -9  -9    2.92    2.12
  -9  17  -9    1.70    1.99
  -8  17  -9    1.15    2.00
   9   8  -9    2.30    2.35
   8   9  -9    2.99    2.30
 -17   9  -9    0.93    2.28
 -17   8  -9    1.25    1.66
  17  -8  -9    3.04    2.57
  17  -9  -9   -0.23    1.83
  -9  -8  -9    1.25    1.43
  -8  -9  -9    2.41    1.46
   9 -17  -9    0.99    1.88
   8 -17  -9    3.19    1.92
  -9  -9   0    3.70    1.19
  -9  -9   1    0.85    0.83
 -18   9   1    2.70    1.32
  -9  -9  -1   -0.04    0.77
 -18   9  -1    2.02    1.46
 -18   9   2    1.04    1.36
  -9  -9   2    0.35    0.77
  -9  -9  -2    2.16    0.76
 -18   9  -2   -0.81    1.53
  -9  -9  -2    0.67    0.68
  -9  -9  -2    1.38    0.69
 -18   9   3    0.93    1.31
   9 -18   3    0.06    1.32
  -9  -9   3   -0.07    1.12
  -9  -9  -3    1.19    0.78
 -18   9  -3    1.48    1.61
   9   9  -3    1.56    1.11
   9 -18  -3    0.20    1.37
  -9  -9  -3   -0.23    0.96
  -9  -9  -3    0.01    1.10
   9 -18  -3    1.51    1.50
 -18   9   4    1.73    1.44
   9 -18   4    1.69    1.49
  -9  -9   4    2.81    1.03
  -9  -9  -4    2.54    0.96
 -18   9  -4    2.97    1.15
   9   9  -4    3.83    1.46
  -9  18  -4    2.79    1.64
   9 -18  -4    3.20    1.57
  -9  -9  -4    2.49    0.89
  -9  -9  -4    2.23    0.89
   9 -18  -4    2.55    1.69
 -18   9   5    0.96    1.36
   9 -18   5    0.16    1.50
  -9  -9   5    2.79    1.06
  -9  -9  -5    2.04    1.04
   9   9  -5    0.87    1.66
 -18   9  -5   -1.59    1.93
  18  -9  -5    1.11    1.55
   9   9  -5    0.41    1.21
  -9  18  -5    0.82    1.64
   9 -18  -5    0.78    1.56
  -9  -9  -5    0.51    0.96
  -9  -9  -5    1.29    0.94
   9 -18  -5    0.63    1.55
   9 -18   6    0.40    1.56
  -9  -9   6    0.16    1.23
  -9  -9  -6    0.37    1.22
   9   9  -6    0.81    2.01
  18  -9  -6   -0.09    1.67
  -9  -9  -6    0.49    1.12
  -9  18  -6    2.38    1.73
   9 -18  -6    1.50    1.02
   9   9  -6    0.64    1.43
  -9  -9  -6    0.91    1.03
   9 -18  -6    3.12    1.64
   9 -18   7    0.08    1.61
  -9  -9   7    0.60    1.35
   9   9  -7    4.12    2.32
  -9  -9  -7    2.57    1.41
  18  -9  -7   -1.58    1.76
   9 -18  -7    2.74    1.67
   9   9  -7    1.33    1.74
  -9  18  -7   -0.47    1.11
  -9  -9  -7    0.10    1.13
   9 -18  -7    1.22    1.70
   9 -18   8    2.14    1.83
  -9  -9   8    0.07    1.61
   9   9  -8    3.66    2.77
  18  -9  -8    1.63    1.98
   9   9  -8   -1.91    2.96
  -9  18  -8    3.46    1.99
  -9  -9  -8    1.59    1.76
   9 -18  -8    3.75    1.83
 -10   0   0   28.41    1.55
 -10  10   0   24.01    1.04
   0 -10   0   26.81    1.36
 -10  10   1    0.15    0.50
 -10   0   1   -0.23    0.87
   0 -10   1    2.58    0.76
 -10  10  -1    0.87    0.59
   0  10  -1    0.75    0.35
  10   0  -1    0.33    0.87
   0 -10  -1    0.68    0.78
 -10  10   2   16.98    0.88
 -10   0   2   17.69    1.38
   0 -10   2   17.11    1.22
  10 -10   2   16.48    0.98
 -10   0   2   15.59    0.66
   0  10  -2   15.13    0.71
  10   0  -2   18.82    1.42
 -10   0  -2   19.20    1.42
 -10  10  -2   19.08    1.12
  10 -10  -2   17.48    0.97
   0 -10  -2   18.31    1.24
   0  10  -2   18.58    1.34
 -10   0  -2   16.40    0.68
  10 -10  -2   17.64    1.00
   0 -10  -2   17.26    0.90
 -10  10   3    0.11    0.55
 -10   0   3    0.96    0.89
   0 -10   3    1.40    0.81
  10 -10   3   -0.16    0.65
 -10   0   3   -0.01    0.53
   0  10  -3    0.73    0.80
   0 -10  -3    0.28    0.28
  10   0  -3   -0.19    0.94
  10 -10  -3    0.05    0.56
 -10   0  -3    1.16    0.96
   0  10  -3    0.30    0.88
 -10  10  -3    0.25    0.73
  10   0  -3    0.61    0.39
 -10   0  -3   -0.31    0.52
  10 -10  -3   -0.16    0.61
   0 -10  -3   -0.34    0.92
 -10   0   4    8.30    1.23
   0 -10   4    7.59    1.14
  10 -10   4    7.71    0.92
 -10   0   4    5.63    0.72
  10   0   4    4.56    0.91
   0  10  -4    6.82    1.14
  10   0  -4    8.16    0.78
  10 -10  -4    7.27    1.20
 -10  10  -4    8.76    1.06
   0  10  -4    7.91    1.20
  10   0  -4    6.85    0.85
 -10   0  -4    6.94    0.96
  10 -10  -4    7.88    0.91
   0 -10  -4    8.36    0.73
   0 -10   5    1.03    1.05
  10 -10   5    1.30    0.88
 -10   0   5    0.81    0.75
  10   0   5    1.32    0.84
   0  10  -5    1.65    1.09
  10   0  -5    2.59    1.12
  10 -10  -5    1.18    0.88
 -10  10  -5    1.38    0.96
  10   0  -5    2.57    0.72
 -10   0  -5    2.15    0.75
  10 -10  -5    2.32    0.86
   0 -10  -5    2.30    1.13
   0 -10   6    6.06    1.27
  10 -10   6    4.14    1.14
 -10   0   6    3.93    1.38
  10   0   6    6.89    1.57
   0  10  -6    4.26    1.30
  10   0  -6    5.78    1.32
  10 -10  -6    5.24    1.19
   0  10  -6    4.92    1.35
 -10  10  -6    6.59    1.22
  10   0  -6    6.11    1.03
 -10   0  -6    4.88    1.03
  10 -10  -6    5.79    1.13
   0 -10  -6    6.61    1.33
   0 -10   7    1.01    1.16
  10 -10   7    1.13    1.07
 -10   0   7    0.98    1.02
  10   0   7    2.36    1.24
  10 -10  -7    1.77    1.13
  10   0  -7    3.37    1.23
   0  10  -7    1.06    1.22
 -10  10  -7   -0.57    1.14
  10   0  -7    0.18    1.03
 -10   0  -7    0.63    1.34
  10 -10  -7    0.88    1.03
   0 -10  -7    2.84    1.27
   0 -10   8   -0.59    1.19
  10 -10   8    0.38    1.11
 -10   0   8   -0.02    1.07
  10   0   8   -1.27    1.77
 -10  10   8    0.12    0.78
  10 -10  -8    0.41    1.21
  10   0  -8   -1.52    1.23
   0  10  -8    0.39    1.18
 -10  10  -8    0.68    1.17
  10   0  -8   -0.15    1.45
 -10   0  -8   -0.35    1.04
  10 -10  -8   -0.88    1.06
   0 -10  -8    1.63    1.25
   0 -10   9    0.93    1.44
  10 -10   9    0.46    1.38
 -10   0   9    2.36    1.84
  10   0   9    3.92    1.65
 -10  10   9    1.09    1.53
  10 -10  -9    3.16    1.56
  10   0  -9    1.74    1.46
   0  10  -9    2.40    1.41
 -10  10  -9    1.64    1.47
  10   0  -9    1.83    1.44
 -10   0  -9    0.77    1.31
  10 -10  -9    3.05    1.29
   0 -10  -9    2.36    1.49
   0 -10  10   -1.06    1.54
  10 -10  10    2.68    1.48
 -10   0  10    0.68    1.52
  10   0  10    1.05    1.81
 -10  10  10    4.80    1.75
  10 -10 -10    0.05    1.79
  10   0 -10    1.55    1.63
   0  10 -10    2.26    0.95
 -10  10 -10    2.18    1.02
  10   0 -10    1.99    1.62
 -10   0 -10    0.88    1.95
  10 -10 -10    1.65    1.42
   0 -10 -10    2.66    1.59
   0 -10  11    0.35    1.61
  10 -10  11    2.32    1.57
 -10   0  11    1.03    1.61
  10   0  11    2.57    1.91
 -10  10  11   -2.86    1.84
   0  10  11   -0.79    1.02
  10 -10 -11   -0.27    1.98
  10   0 -11   -0.27    1.73
   0  10 -11    1.41    1.54
 -10  10 -11   -0.08    1.69
  10   0 -11    0.25    1.77
 -10   0 -11    1.02    1.55
  10 -10 -11   -0.10    1.50
   0 -10 -11    2.24    1.64
   0 -10  12   -0.11    1.83
  10 -10  12    1.01    1.75
 -10   0  12   -1.05    1.84
  10   0  12    0.40    2.11
 -10  10  12   -2.02    2.05
   0  10  12    0.82    1.84
  10 -10 -12    1.97    2.25
  10   0 -12    0.72    1.97
   0  10 -12    2.44    1.76
 -10  10 -12   -0.87    1.88
  10   0 -12    1.25    2.02
 -10   0 -12    1.54    1.69
  10 -10 -12    3.38    1.60
   0 -10 -12    0.52    1.80
 -10  -1   0    8.30    0.73
 -11   1   0   10.80    1.25
 -10  11   0    8.86    0.66
 -11  10   0    8.34    1.10
   1 -11   0   13.40    1.11
  -1 -10   0   10.66    1.02
  10 -11   0    9.54    0.84
  11 -10   0    8.52    0.71
 -10  11   1   15.90    0.77
 -11   1   1   17.79    0.90
 -10  -1   1   17.33    1.34
 -11  10   1   18.02    1.24
  -1 -10   1   18.11    1.20
   1 -11   1   17.49    1.29
  10 -11   1   16.36    1.03
  11 -10   1   17.11    0.92
 -10  -1   1   18.66    0.52
 -10  -1  -1   16.96    1.35
 -11   1  -1   18.57    1.49
 -11  10  -1   16.41    1.11
 -10  11  -1   14.75    1.15
  11  -1  -1   16.06    0.95
  10   1  -1   16.08    1.39
   1 -11  -1   16.03    1.30
  -1 -10  -1   18.05    1.20
  10 -11  -1   16.78    1.03
  11 -10  -1   16.04    0.88
 -10  -1  -1   15.93    0.47
 -10  -1  -1   18.88    0.57
  11 -10  -1   16.12    0.87
 -10  11   2    2.02    0.69
 -10  -1   2    1.54    0.99
 -11  10   2    2.80    0.86
 -11   1   2    3.16    0.99
  -1 -10   2    1.89    0.83
   1 -11   2    3.40    0.89
  10 -11   2    2.63    0.73
  11 -10   2    1.16    0.63
 -10  -1   2    2.15    0.47
  -1 -10  -2    1.34    0.36
  -1  11  -2    1.70    0.49
   1  10  -2    0.81    0.63
 -10  -1  -2   -0.30    1.00
 -11   1  -2    2.09    0.63
  10   1  -2    2.05    0.99
  11  -1  -2    2.09    1.04
 -11  10  -2    2.70    0.78
 -10  11  -2    2.72    0.84
 -11  10  -2    2.47    0.71
   1  10  -2    2.78    0.94
  -1  11  -2    4.16    1.04
   1 -11  -2    1.61    0.91
  10 -11  -2    2.18    0.72
  11 -10  -2    2.34    0.59
  -1 -10  -2    2.31    0.86
 -10  -1  -2    1.35    0.31
 -10  -1  -2    2.13    0.47
  11 -10  -2    2.10    0.61
  10 -11  -2    2.24    0.73
  -1 -10  -2    1.78    0.92
 -11  10   3    7.82    0.81
 -10  -1   3    6.25    1.15
 -11   1   3    7.25    1.24
  -1 -10   3    7.75    1.06
   1 -11   3    7.90    1.13
  10 -11   3    7.33    0.91
  11 -10   3    7.44    0.85
 -10  -1   3    6.86    0.79
 -11   1   3    6.51    0.56
  -1  11  -3    7.16    1.02
   1  10  -3    5.93    0.81
  10   1  -3    9.23    1.25
  11  -1  -3    7.06    1.25
  10 -11  -3    7.07    0.67
 -11   1  -3    8.93    1.34
  11 -10  -3    8.59    1.14
 -10  -1  -3    8.44    0.80
   1 -11  -3    8.32    1.14
  10 -11  -3    8.53    0.94
  -1 -10  -3    8.41    1.08
 -10  11  -3    6.94    1.06
   1  10  -3    9.32    1.15
  -1  11  -3    8.24    0.77
 -11  10  -3    7.66    0.93
 -11   1  -3    6.79    0.59
 -10  -1  -3    8.11    0.79
  11 -10  -3    6.59    0.80
  10 -11  -3    6.93    0.90
  -1 -10  -3    8.35    1.20
   1 -11  -3    8.64    1.26
 -10  -1   4    1.97    1.06
 -11   1   4    3.30    1.14
  -1 -10   4    2.37    0.95
   1 -11   4    1.75    1.01
  10 -11   4    1.53    0.86
  11 -10   4    1.53    0.77
 -10  -1   4    0.81    0.82
 -11   1   4    2.39    0.71
  11  -1   4    2.39    0.69
  -1  11  -4    0.78    0.97
   1  10  -4    2.10    0.97
  10   1  -4    2.49    1.09
  11  -1  -4    2.33    1.11
  11 -10  -4    1.63    0.82
  10 -11  -4    2.97    0.66
   1  10  -4    2.19    1.02
  -1  11  -4    2.32    1.09
 -10  11  -4    1.34    0.95
 -11  10  -4    2.55    0.85
  10   1  -4    1.15    0.72
  11  -1  -4    1.73    0.66
 -11   1  -4    1.01    0.71
 -10  -1  -4    1.06    0.64
  11 -10  -4    1.90    0.74
  10 -11  -4    2.01    0.84
   1 -11  -4    3.65    1.09
  -1 -10  -4    1.55    1.03
   1 -11   5   16.13    1.60
  -1 -10   5   17.51    1.52
  10 -11   5   14.40    1.38
  11 -10   5   15.15    1.30
 -10  -1   5   12.97    1.18
 -11   1   5   12.71    1.48
  11  -1   5   14.20    1.61
  10   1   5   12.18    1.25
  -1  11  -5   15.85    1.74
   1  10  -5   17.97    1.87
  10   1  -5   15.92    1.65
  10 -11  -5   15.11    1.28
  11  -1  -5   17.60    1.65
  11 -10  -5   17.48    1.43
   1  10  -5   20.24    1.59
  -1  11  -5   18.23    1.08
 -10  11  -5   18.11    1.52
 -11  10  -5   15.99    1.43
  10   1  -5   14.47    1.20
  11  -1  -5   14.53    1.46
 -11   1  -5   13.47    1.11
 -10  -1  -5   14.57    1.57
  11 -10  -5   14.12    1.29
  10 -11  -5   15.34    1.35
   1 -11  -5   18.03    1.11
  -1 -10  -5   16.41    1.55
   1 -11   6    2.64    1.23
  -1 -10   6    3.46    1.19
  10 -11   6    3.24    1.08
  11 -10   6    3.63    1.04
 -10  -1   6    2.66    1.32
 -11   1   6    2.48    0.95
  11  -1   6    3.27    1.16
  10   1   6    3.82    1.17
   1  10  -6    5.92    1.46
  10 -11  -6    2.20    1.44
  10   1  -6    3.37    1.28
  11  -1  -6    3.24    0.80
  11 -10  -6    3.21    1.16
 -10  11  -6    3.43    1.20
   1  10  -6    3.69    1.24
  -1  11  -6    2.81    1.26
 -11  10  -6    3.33    1.11
  10   1  -6    3.84    1.01
  11  -1  -6    2.79    0.99
 -11   1  -6    3.09    0.94
 -10  -1  -6    3.45    0.99
  11 -10  -6    2.45    1.02
  10 -11  -6    4.01    1.08
  -1 -10  -6    3.44    1.23
   1 -11  -6    4.46    1.30
   1 -11   7    2.92    1.38
  -1 -10   7    2.56    1.32
  10 -11   7    4.62    1.23
  11 -10   7    2.46    1.20
 -10  -1   7    3.00    1.17
 -11   1   7    4.38    1.14
  11  -1   7    4.53    1.96
  10   1   7    5.64    1.49
   1  10  -7    4.68    1.47
  10 -11  -7    5.02    1.66
  10   1  -7    3.54    0.87
  11  -1  -7    3.27    1.40
  11 -10  -7    6.72    1.33
  -1  11  -7    4.20    1.38
 -10  11  -7    4.00    1.35
   1  10  -7    4.21    1.34
 -11  10  -7    4.37    1.28
  10   1  -7    4.11    1.22
  11  -1  -7    5.57    1.19
 -11   1  -7    3.27    1.11
 -10  -1  -7    3.40    1.52
  11 -10  -7    2.69    1.15
  10 -11  -7    2.99    1.20
  -1 -10  -7    4.44    1.39
   1 -11  -7    3.06    1.44
   1 -11   8    0.32    1.25
  -1 -10   8    0.97    1.25
  10 -11   8    0.54    1.18
  11 -10   8   -1.13    1.16
 -10  -1   8   -1.75    1.14
 -11   1   8   -0.30    1.13
  11  -1   8    2.44    1.42
  10   1   8    2.22    1.44
   1  10  -8   -0.87    1.16
  10 -11  -8   -0.60    1.26
  11  -1  -8    2.17    1.29
  11 -10  -8    1.42    1.31
  10   1  -8    0.87    1.31
   1  10  -8    1.34    1.25
  -1  11  -8   -0.55    1.29
 -10  11  -8    0.25    1.28
 -11  10  -8    1.26    1.21
  10   1  -8    1.46    1.17
  11  -1  -8    0.98    1.15
 -11   1  -8    1.25    1.08
 -10  -1  -8    0.07    1.10
  11 -10  -8   -0.29    1.12
  10 -11  -8    0.85    1.13
  -1 -10  -8   -0.11    1.30
   1 -11  -8   -0.64    1.37
   1 -11   9    1.26    1.54
  -1 -10   9    1.80    1.51
  10 -11   9    2.16    0.89
  11 -10   9    1.43    1.44
 -10  -1   9    2.59    1.43
 -11   1   9    2.94    1.96
  11  -1   9    3.89    1.84
  10   1   9    4.08    2.47
 -11  10   9    2.27    1.67
   1  10  -9    2.37    1.33
  10 -11  -9    5.17    1.64
  11  -1  -9    3.99    1.58
  11 -10  -9    0.97    1.67
  10   1  -9    3.44    1.59
   1  10  -9    2.71    1.49
  -1  11  -9    2.91    1.56
 -10  11  -9    2.15    1.54
 -11  10  -9    3.09    1.54
  10   1  -9    3.23    1.51
  11  -1  -9    3.82    1.55
 -11   1  -9    3.27    1.37
 -10  -1  -9    3.77    1.37
  11 -10  -9    3.15    1.34
  10 -11  -9    3.55    1.40
  -1 -10  -9    2.86    1.55
   1 -11  -9    3.16    1.62
   1 -11  10    2.48    1.56
  -1 -10  10    0.50    1.57
  10 -11  10    1.56    1.51
  11 -10  10    1.56    1.50
 -10  -1  10    1.75    1.54
 -11   1  10    2.29    1.59
  11  -1  10    4.32    1.88
  10   1  10    1.88    1.94
 -11  10  10    4.31    1.81
 -10  11  10    1.44    1.10
   1  10 -10    1.58    1.39
  10 -11 -10    1.46    1.80
  10   1 -10   -1.12    1.65
  11  -1 -10    0.60    1.63
  11 -10 -10    1.53    2.45
 -10  11 -10    2.93    1.62
   1  10 -10    1.59    1.56
  -1  11 -10    1.63    1.59
 -11  10 -10    2.73    1.63
  10   1 -10    1.98    1.65
  11  -1 -10    4.04    1.72
 -11   1 -10    3.30    1.95
 -10  -1 -10    0.19    1.48
  11 -10 -10   -0.71    1.41
  10 -11 -10    0.68    1.42
  -1 -10 -10    2.69    1.58
   1 -11 -10    1.42    1.63
   1 -11  11    1.43    1.80
  -1 -10  11    1.46    1.82
  10 -11  11    3.64    1.76
 -10  -1  11    2.86    1.79
 -11   1  11    2.49    1.80
  11  -1  11    3.50    2.15
  10   1  11    3.65    2.24
 -11  10  11    2.48    2.09
 -10  11  11    1.94    1.98
   1  10 -11   -0.20    1.68
  10 -11 -11    3.04    2.18
  11  -1 -11    3.04    1.21
  11 -10 -11    2.23    2.16
  10   1 -11    4.00    1.91
  -1  11 -11    0.87    1.78
   1  10 -11    3.55    1.09
 -10  11 -11    6.94    1.89
 -11  10 -11    3.05    1.87
  10   1 -11    2.09    1.99
  11  -1 -11    1.21    2.07
 -11   1 -11    2.75    1.70
 -10  -1 -11    1.35    1.67
  11 -10 -11    2.39    1.61
  10 -11 -11   -0.69    1.60
   1 -11 -11    2.15    1.18
  -1 -10 -11    1.61    1.83
  -1 -10  12    2.10    1.81
   1 -11  12    0.77    1.18
  10 -11  12    1.83    1.79
  11 -10  12    1.99    1.74
 -10  -1  12   -2.23    1.84
 -11   1  12    1.19    1.89
  11  -1  12    2.21    2.21
  10   1  12    5.37    2.30
 -11  10  12    2.28    2.18
 -10  11  12   -1.83    2.10
   1  10 -12    0.72    1.87
  10 -11 -12    0.70    2.31
  11  -1 -12    0.53    2.06
  11 -10 -12   -0.60    2.31
  10   1 -12    1.57    1.99
  -1  11 -12   -1.18    1.84
   1  10 -12    0.99    1.81
 -10  11 -12   -2.34    1.97
 -11  10 -12   -1.94    1.94
  10   1 -12    1.20    2.13
  11  -1 -12    1.18    2.19
 -11   1 -12    0.86    1.77
 -10  -1 -12   -1.28    1.73
  11 -10 -12    2.32    1.66
  10 -11 -12    2.13    1.69
   1 -11 -12    4.28    1.87
  -1 -10 -12    2.74    1.81
 -10  12   0    1.91    0.63
 -12   2   0    6.12    1.11
 -12  10   0    1.77    0.77
   2 -12   0    5.07    1.00
  -2 -10   0    2.97    0.83
  12 -10   0    1.45    0.53
 -10  -2   0    1.77    0.38
 -10  -2   1   13.57    1.29
 -10  12   1   11.68    0.65
 -12   2   1   13.74    0.93
 -12  10   1   13.23    1.00
  -2 -10   1   13.01    1.12
   2 -12   1   15.33    1.28
  10 -12   1   14.46    1.06
  12 -10   1   12.89    0.82
 -10  -2   1   14.96    0.63
  -2 -10  -1   13.78    0.74
 -12   2  -1   15.77    1.51
 -10  12  -1   11.29    0.78
 -12  10  -1   13.01    1.11
  10   2  -1   12.25    0.89
  10 -12  -1   14.03    1.09
  -2 -10  -1   14.13    1.14
   2 -12  -1   14.33    1.32
  12 -10  -1   12.96    0.75
 -10  -2  -1   12.51    0.56
 -10  -2  -1   15.50    0.71
 -10  12   2    1.10    0.63
 -12  10   2    1.03    0.70
 -10  -2   2    1.27    0.95
 -12   2   2    2.98    1.03
   2 -12   2    0.09    0.59
  -2 -10   2    1.06    0.84
  10 -12   2    1.38    0.79
  12 -10   2    0.74    0.59
 -10  -2   2    0.28    0.52
  -2 -10  -2    1.04    0.33
  -2  12  -2    0.63    0.40
   2  10  -2    1.65    0.69
 -10  -2  -2    1.67    0.98
 -12   2  -2   -2.03    1.13
 -12  10  -2    1.40    0.87
  10   2  -2    1.92    1.04
 -12  10  -2    1.48    0.63
 -10  12  -2    1.47    0.90
  -2  12  -2    1.68    1.07
  -2 -10  -2    0.93    0.85
  12 -10  -2    1.19    0.54
   2 -12  -2    2.10    0.98
  10 -12  -2    3.49    0.81
 -10  -2  -2    0.24    0.39
 -10  -2  -2    1.29    0.55
  12 -10  -2    1.12    0.75
  10 -12  -2    0.52    0.82
  -2 -10  -2    0.47    0.90
 -10  -2   3    3.55    1.08
 -12   2   3    2.95    1.16
 -12  10   3    2.59    0.79
   2 -12   3    3.73    1.07
  -2 -10   3    3.48    0.95
  10 -12   3    2.82    0.89
  12 -10   3    2.29    0.97
 -10  -2   3    2.64    0.57
  -2  12  -3    2.65    0.65
   2  10  -3    1.63    0.99
  -2 -10  -3    1.61    0.51
  10   2  -3    2.04    1.17
  12  -2  -3    3.53    0.72
 -10  -2  -3    4.15    1.11
  12 -10  -3    2.56    0.85
 -12   2  -3    2.58    0.79
  10 -12  -3    4.85    0.93
  -2 -10  -3    2.96    0.96
   2 -12  -3    3.93    1.09
  12 -10  -3    2.16    0.66
 -10  12  -3    1.50    1.03
   2  10  -3    3.30    1.02
  -2  12  -3    2.50    1.15
 -12  10  -3    2.28    1.09
  10   2  -3    1.44    0.57
 -10  -2  -3    2.68    0.76
  12 -10  -3    2.76    0.67
  10 -12  -3    3.87    0.91
  -2 -10  -3    3.55    1.07
   2 -12  -3    2.44    1.21
 -10  -2   4    1.17    1.01
 -12   2   4    2.07    0.69
  -2 -10   4   -0.38    0.92
   2 -12   4    1.00    1.04
  10 -12   4    0.83    0.87
  12 -10   4    0.54    0.73
 -10  -2   4    0.88    0.63
 -12   2   4   -0.18    0.60
  12  -2   4    0.48    0.64
  -2  12  -4   -0.18    1.25
   2  10  -4   -0.27    0.90
  10   2  -4   -0.94    1.11
  12  -2  -4    1.30    0.68
  10 -12  -4    0.75    0.54
  12 -10  -4    1.67    1.17
  -2 -10  -4    0.21    0.41
 -10  -2  -4   -0.95    1.12
 -12   2  -4    0.81    0.75
 -10  12  -4   -0.06    0.60
   2  10  -4   -0.91    1.00
  -2  12  -4    0.49    1.10
 -12  10  -4    0.90    0.82
  10   2  -4    0.74    0.53
  12  -2  -4    1.42    0.59
 -12   2  -4    0.75    0.59
 -10  -2  -4    1.38    0.84
  12 -10  -4    0.56    0.69
  10 -12  -4    0.24    0.86
  -2 -10  -4    0.93    0.97
   2 -12  -4    0.53    1.15
   2 -12   5    8.15    0.88
  10 -12   5    7.52    1.17
  -2 -10   5    7.65    1.25
  12 -10   5    6.66    1.09
 -10  -2   5    4.40    0.99
 -12   2   5    5.18    1.09
  12  -2   5    3.98    1.28
   2  10  -5    6.80    1.55
  12  -2  -5    6.56    1.42
  10   2  -5    6.27    1.44
  10 -12  -5    5.82    0.89
  12 -10  -5    8.43    1.23
 -10  12  -5    8.89    0.85
   2  10  -5    7.22    1.33
  -2  12  -5    8.49    1.44
 -12  10  -5    7.13    1.13
  10   2  -5    5.62    0.95
  12  -2  -5    5.73    1.17
 -12   2  -5    4.82    0.82
 -10  -2  -5    3.59    1.32
  12 -10  -5    4.87    1.03
  10 -12  -5    7.18    1.15
  -2 -10  -5    7.47    1.26
   2 -12  -5    7.87    1.42
   2 -12   6    1.11    1.19
  -2 -10   6    0.10    1.07
  10 -12   6    0.80    1.03
  12 -10   6   -0.30    0.94
 -10  -2   6    1.02    1.17
 -12   2   6   -0.07    0.83
  12  -2   6    1.06    1.40
  10   2   6    0.52    0.97
   2  10  -6   -0.67    1.42
  10 -12  -6    1.49    0.90
  12  -2  -6    0.50    1.21
  10   2  -6    1.87    1.23
  12 -10  -6    1.23    1.10
  -2  12  -6    0.44    1.22
 -10  12  -6    1.21    1.14
   2  10  -6   -0.12    1.13
 -12  10  -6    1.07    1.00
  10   2  -6    1.09    0.89
  12  -2  -6    0.29    1.17
 -12   2  -6   -1.10    1.07
 -10  -2  -6   -0.66    0.90
  12 -10  -6    0.44    0.91
  10 -12  -6   -0.52    0.98
  -2 -10  -6    1.42    1.06
   2 -12  -6   -0.16    1.24
   2 -12   7    3.75    1.40
  -2 -10   7    3.56    0.83
  10 -12   7    3.45    1.26
  12 -10   7    3.34    1.25
 -10  -2   7    1.64    1.17
 -12   2   7    2.15    1.53
  12  -2   7    2.83    1.50
  10   2   7    0.31    1.94
   2  10  -7    4.93    1.71
  10   2  -7    1.74    1.42
  10 -12  -7    4.10    1.25
  12  -2  -7    3.55    1.44
  12 -10  -7    4.47    1.40
 -10  12  -7    3.64    1.39
   2  10  -7    4.54    1.38
  -2  12  -7    4.23    1.45
 -12  10  -7    3.32    1.31
  10   2  -7    6.01    1.31
  12  -2  -7    2.38    1.19
 -12   2  -7    2.40    1.10
 -10  -2  -7    2.18    1.19
  12 -10  -7    2.19    1.16
  10 -12  -7    3.24    1.21
  -2 -10  -7    3.86    1.39
   2 -12  -7    3.96    0.92
   2 -12   8   -0.16    1.31
  -2 -10   8    0.08    0.77
  10 -12   8   -0.90    1.22
  12 -10   8    1.22    1.19
 -10  -2   8    0.75    1.53
 -12   2   8    0.76    1.54
  12  -2   8    4.58    1.50
  10   2   8    0.80    1.58
   2  10  -8   -0.70    1.40
  10 -12  -8    2.54    1.26
  12  -2  -8   -2.00    1.36
  10   2  -8   -0.09    1.34
  12 -10  -8   -0.98    1.37
  -2  12  -8   -0.74    1.36
 -10  12  -8    1.02    0.80
   2  10  -8    0.55    1.29
 -12  10  -8    2.10    1.67
  10   2  -8   -0.94    1.27
  12  -2  -8   -0.10    1.21
 -12   2  -8    0.56    1.10
 -10  -2  -8    0.84    1.14
  12 -10  -8    0.25    1.10
  10 -12  -8    0.51    1.18
  -2 -10  -8   -0.63    1.27
   2 -12  -8    0.73    0.87
   2 -12   9    1.55    1.55
  10 -12   9    3.54    1.42
  -2 -10   9    1.96    0.93
  12 -10   9    1.88    1.48
 -10  -2   9    2.39    1.40
 -12   2   9    1.16    1.43
  12  -2   9    1.70    1.84
  10   2   9    1.58    2.69
 -12  10   9    0.92    1.67
   2  10  -9    0.99    1.48
  10 -12  -9    3.58    1.63
  10   2  -9    1.52    1.56
  12  -2  -9    2.11    1.02
  12 -10  -9    0.31    1.70
 -10  12  -9    1.79    1.60
   2  10  -9    2.95    1.52
  -2  12  -9    4.48    1.59
 -12  10  -9    0.21    1.49
  10   2  -9    3.05    1.54
  12  -2  -9    0.63    2.13
 -12   2  -9    1.17    1.39
 -10  -2  -9    2.18    1.37
  12 -10  -9    1.89    1.31
  10 -12  -9    2.34    1.35
  -2 -10  -9    0.97    1.50
   2 -12  -9    2.79    1.63
   2 -12  10    0.56    0.98
  10 -12  10    0.71    1.46
  -2 -10  10   -0.80    1.52
  12 -10  10   -0.66    1.50
 -10  -2  10   -2.47    1.45
 -12   2  10   -0.27    1.54
  12  -2  10    1.20    1.87
  10   2  10   -0.30    2.13
 -12  10  10    1.94    1.74
   2  10 -10    2.66    1.42
  10 -12 -10    1.80    1.76
  10   2 -10    0.60    1.58
  12  -2 -10    1.49    1.68
  12 -10 -10   -0.91    1.81
   2  10 -10   -0.06    1.55
  -2  12 -10    0.55    1.59
 -10  12 -10    0.81    1.61
 -12  10 -10   -0.44    1.62
  10   2 -10    0.44    1.60
  12  -2 -10    2.71    1.77
 -12   2 -10    1.28    1.93
 -10  -2 -10    0.43    1.40
  12 -10 -10    0.66    1.37
  10 -12 -10    2.34    1.40
  -2 -10 -10    0.10    1.55
   2 -12 -10   -0.41    1.65
   2 -12  11   -1.48    1.71
  10 -12  11    0.90    1.63
  -2 -10  11   -0.39    1.68
  12 -10  11    0.76    1.62
 -10  -2  11    1.79    1.63
  12  -2  11    2.34    2.01
 -12   2  11    2.97    1.69
  10   2  11   -1.47    2.40
 -12  10  11   -0.92    2.00
   2  10 -11   -0.93    1.58
  10 -12 -11    1.94    2.06
  12  -2 -11    2.40    1.83
  12 -10 -11    0.24    2.08
  10   2 -11    0.30    1.72
  -2  12 -11    1.25    1.71
 -10  12 -11   -0.66    1.78
   2  10 -11    0.31    1.69
 -12  10 -11    1.13    1.81
  10   2 -11   -1.52    1.87
  12  -2 -11    0.82    2.01
 -12   2 -11    1.24    1.60
 -10  -2 -11   -0.31    1.58
  12 -10 -11    1.10    1.51
  10 -12 -11    1.26    1.51
  -2 -10 -11   -0.89    1.71
   2 -12 -11   -0.31    1.78
 -13  10   0   25.92    1.52
  -3 -10   0   21.99    0.93
 -10  -3   0   23.20    0.89
 -10  13   1   23.54    1.07
 -10  -3   1   26.23    1.69
 -13  10   1   30.84    1.57
 -13   3   1   28.55    1.30
  -3 -10   1   28.19    1.48
  13 -10   1   25.63    1.05
 -10  -3   1   30.39    1.12
  -3 -10  -1   25.21    1.15
 -13  10  -1   25.25    1.65
  10 -13  -1   28.77    1.58
  -3 -10  -1   27.74    1.50
 -10  -3  -1   25.93    0.94
 -10  -3  -1   28.60    1.21
  13 -10  -1   26.33    1.35
 -10  -3   2    3.48    1.12
 -13  10   2    5.32    0.92
 -13   3   2    3.99    1.28
   3 -13   2    4.62    0.71
  13 -10   2    3.08    0.67
 -10  -3   2    4.06    0.55
  -3 -10  -2    4.38    0.45
 -10  -3  -2    3.50    1.21
 -13   3  -2    0.14    1.44
   3  10  -2    2.55    0.65
 -13  10  -2    3.67    1.12
  10   3  -2    3.76    1.20
 -10  13  -2    2.42    0.65
  13  -3  -2    4.37    1.31
 -10  13  -2    4.09    1.13
   3  10  -2    4.07    1.08
  -3  13  -2    5.14    1.32
 -10  -3  -2    3.28    0.41
  13 -10  -2    3.21    0.75
 -10  -3  -2    3.51    0.56
  13 -10  -2    4.79    0.85
  10 -13  -2    6.58    1.05
  -3 -10  -2    6.49    1.12
 -10  -3   3   22.63    1.79
 -13   3   3   25.95    1.95
 -13  10   3   23.71    1.48
   3 -13   3   26.18    1.84
  10 -13   3   23.23    1.56
  -3 -10   3   23.30    1.58
  13 -10   3   20.89    1.61
 -10  -3   3   20.35    1.44
  10   3  -3   23.64    1.94
 -10  -3  -3   25.93    1.87
  13  -3  -3   24.50    1.99
 -13   3  -3   26.93    2.20
  13 -10  -3   23.69    1.55
 -13  10  -3   21.47    1.92
 -10  13  -3   26.98    1.84
  10 -13  -3   24.42    1.68
  -3 -10  -3   23.52    1.62
   3  10  -3   26.59    1.74
  -3  13  -3   27.74    1.97
   3 -13  -3   25.73    1.90
 -13  10  -3   21.36    1.41
  10 -13  -3   22.94    1.15
  -3 -10  -3   25.78    1.72
   3 -13  -3   27.68    2.05
 -13  10   4    3.76    0.93
 -10  -3   4    3.19    0.69
 -13   3   4    4.64    1.34
   3 -13   4    2.78    1.24
  10 -13   4    3.51    1.06
  -3 -10   4    3.36    1.09
  13 -10   4    2.60    0.84
 -10  -3   4    3.33    0.78
  13  -3   4    2.12    0.67
 -13   3   4    1.92    0.56
  -3  13  -4    3.56    1.08
   3  10  -4    1.66    1.06
  10   3  -4    3.14    1.30
  13  -3  -4    2.52    1.27
  -3 -10  -4    2.62    0.71
  13 -10  -4    4.08    1.07
  10 -13  -4    2.91    0.50
 -10  -3  -4    5.44    0.79
 -13   3  -4    4.32    1.50
  10 -13  -4    2.96    1.10
   3 -13  -4    4.02    1.23
 -10  13  -4    4.15    1.21
   3  10  -4    4.93    1.15
  -3  13  -4    5.44    1.33
 -13  10  -4    4.01    1.22
  10   3  -4    2.63    0.66
 -13   3  -4    2.21    0.61
  13  -3  -4    2.53    0.62
 -10  -3  -4    3.02    1.03
  13 -10  -4    3.62    1.07
  10 -13  -4    3.45    1.03
  -3 -10  -4    3.19    1.07
   3 -13  -4    4.63    1.37
 -13   3   5   12.69    1.07
   3 -13   5   15.06    1.63
  10 -13   5   11.31    1.42
  -3 -10   5   12.23    1.42
  13 -10   5   10.39    1.28
 -10  -3   5    8.52    1.18
  13  -3   5    9.84    1.46
   3  10  -5   10.81    1.77
  10   3  -5   13.33    1.71
  13  -3  -5   12.22    1.69
  13 -10  -5   13.23    1.53
  10 -13  -5    8.90    0.87
  -3 -10  -5    8.68    0.88
 -10  -3  -5   15.39    1.75
 -10  13  -5   13.76    1.63
   3  10  -5   14.20    1.56
  -3  13  -5   17.15    1.77
 -13  10  -5   11.09    1.36
  10   3  -5    8.92    1.46
  13  -3  -5    9.32    1.39
 -10  -3  -5    8.97    1.53
  13 -10  -5    9.45    1.19
  10 -13  -5   11.75    1.40
  -3 -10  -5   12.60    1.45
   3 -13  -5   14.16    1.75
   3 -13   6    3.47    1.31
  10 -13   6    2.23    0.76
  -3 -10   6    2.61    1.21
  13 -10   6    4.00    1.11
 -10  -3   6    2.61    1.37
  13  -3   6    3.02    1.24
 -13   3   6    2.47    1.20
   3  10  -6    2.63    1.65
  10   3  -6    3.31    1.42
  10 -13  -6    2.69    1.09
  13  -3  -6    2.69    0.84
  13 -10  -6    1.96    1.29
 -10  13  -6    2.43    1.36
   3  10  -6    2.71    1.30
  -3  13  -6    2.46    1.42
 -13  10  -6    2.14    1.15
  10   3  -6    2.83    1.09
 -13   3  -6    2.47    0.87
  13  -3  -6    3.12    1.03
 -10  -3  -6    2.31    1.04
  13 -10  -6    2.29    1.01
  10 -13  -6    3.19    1.18
  -3 -10  -6    2.34    1.20
   3 -13  -6    1.78    1.44
   3 -13   7    4.40    0.96
  10 -13   7    3.84    1.35
  -3 -10   7    3.85    1.35
  13 -10   7    5.07    1.32
 -10  -3   7    4.85    1.20
  13  -3   7    3.56    2.14
 -13   3   7    2.45    1.20
   3  10  -7    8.43    1.95
  10 -13  -7    3.42    1.65
  13  -3  -7    3.08    1.55
  10   3  -7    4.39    1.59
  13 -10  -7    3.84    1.51
  -3  13  -7    5.86    1.59
 -10  13  -7    3.47    1.51
   3  10  -7    6.61    1.47
 -13  10  -7    3.65    1.36
  10   3  -7    3.32    1.82
 -13   3  -7    3.55    1.11
  13  -3  -7    4.10    1.63
 -10  -3  -7    2.47    1.26
  13 -10  -7    4.40    1.18
  10 -13  -7    1.94    1.36
  -3 -10  -7    4.39    0.86
   3 -13  -7    6.37    1.56
   3 -13   8    2.16    0.87
  10 -13   8    0.97    1.30
  -3 -10   8   -0.63    1.33
  13 -10   8    0.77    1.29
 -10  -3   8   -0.49    1.19
  13  -3   8    5.00    2.25
 -13   3   8    1.06    1.21
  10   3   8    0.02    1.72
   3  10  -8   -0.35    1.72
  10 -13  -8    0.61    1.33
  10   3  -8    1.48    1.47
  13  -3  -8    1.19    0.92
  13 -10  -8    2.40    1.51
 -10  13  -8    1.47    1.43
   3  10  -8    0.28    1.42
  -3  13  -8    0.81    1.45
 -13  10  -8    2.94    1.32
  10   3  -8    0.39    1.47
  13  -3  -8    2.19    1.76
 -13   3  -8    1.85    1.53
 -10  -3  -8    0.35    1.21
  13 -10  -8    0.85    1.15
  10 -13  -8    1.56    1.29
  -3 -10  -8    2.22    1.35
   3 -13  -8    2.03    1.51
   3 -13   9    0.75    1.60
  10 -13   9    1.91    0.93
  -3 -10   9    3.15    1.50
  13 -10   9    0.48    1.50
 -10  -3   9    3.73    1.90
  13  -3   9    3.10    2.56
 -13   3   9    1.28    1.46
  10   3   9    4.97    2.76
   3  10  -9    2.61    1.70
  10   3  -9    3.57    1.63
  10 -13  -9    2.57    1.64
  13 -10  -9    2.32    1.77
  13  -3  -9    1.78    1.70
  -3  13  -9    0.31    1.69
 -10  13  -9    2.34    1.65
   3  10  -9    1.59    1.60
 -13  10  -9    2.45    1.53
  10   3  -9    2.50    1.72
 -13   3  -9    0.97    1.84
  13  -3  -9    2.70    1.73
 -10  -3  -9    0.92    1.40
  13 -10  -9    1.24    1.34
  10 -13  -9    2.94    1.41
  -3 -10  -9    2.36    1.51
   3 -13  -9    1.05    1.71
   3 -13  10    0.55    1.65
  10 -13  10    0.01    1.55
  -3 -10  10   -0.51    0.95
  13 -10  10    1.79    1.54
 -10  -3  10    0.13    1.49
  13  -3  10    2.92    2.60
 -13   3  10    0.55    1.60
  10   3  10    0.40    2.28
 -13  10  10   -2.72    1.82
   3  10 -10    0.11    1.54
  10 -13 -10    0.37    1.78
  10   3 -10   -0.26    1.64
  13  -3 -10    0.27    1.72
  13 -10 -10    1.56    1.88
 -10  13 -10    2.06    1.69
   3  10 -10   -0.35    1.64
  -3  13 -10   -1.27    1.63
 -13  10 -10    0.21    1.60
  10   3 -10    1.10    1.75
  13  -3 -10    2.83    1.90
 -13   3 -10   -1.86    1.94
 -10  -3 -10    2.31    1.44
  13 -10 -10   -0.12    1.41
  10 -13 -10    1.46    1.46
  -3 -10 -10    1.82    1.57
   3 -13 -10    2.37    1.67
   3 -13  11    1.64    1.93
  10 -13  11    0.00    1.83
  -3 -10  11    3.31    1.83
  13 -10  11    1.06    1.80
 -10  -3  11    1.73    1.75
  13  -3  11    2.14    2.29
 -13   3  11    4.42    1.91
  10   3  11    4.86    2.71
 -13  10  11    4.15    2.16
   3  10 -11    1.75    1.72
  10 -13 -11    0.62    2.29
  10   3 -11    1.51    1.88
  13  -3 -11    3.55    1.27
  13 -10 -11    1.93    2.27
 -10  13 -11    2.54    1.97
   3  10 -11    3.25    1.90
  -3  13 -11    2.16    1.90
 -13  10 -11    0.28    1.96
  10   3 -11    2.53    2.13
 -13   3 -11    0.35    1.79
  13  -3 -11   -1.38    3.12
 -10  -3 -11    1.74    1.70
  13 -10 -11    0.60    1.64
  -3 -10 -11    1.09    1.77
  10 -13 -11    1.28    1.74
   3 -13 -11    2.61    1.94
  -4 -10   0    4.57    0.61
 -14  10   0    4.55    1.11
  -4 -10   0    5.58    0.91
  14 -10   0    4.64    0.56
 -10  -4   0    4.96    0.66
 -10  -4   0    4.87    0.63
 -10  14   1    3.70    0.53
 -10  -4   1    4.49    1.07
 -14   4   1    5.21    0.81
 -14  10   1    4.34    1.00
  -4 -10   1    4.62    0.90
  14 -10   1    4.25    0.58
 -10  -4   1    4.28    0.54
  -4 -10  -1    3.94    0.54
 -14  10  -1    3.14    1.15
  10 -14  -1    4.53    1.05
  -4 -10  -1    6.25    0.94
  14 -10  -1    3.28    0.66
 -10  -4  -1    3.71    0.45
 -10  -4  -1    3.61    0.51
 -10  -4   2    3.63    1.07
 -14   4   2    3.58    1.28
 -14  10   2    3.36    0.96
   4 -14   2    4.19    1.18
  10 -14   2    4.62    1.05
  -4 -10   2    4.08    0.90
  14 -10   2    2.64    0.63
 -10  -4   2    3.28    0.59
  -4 -10  -2    2.69    0.51
 -10  -4  -2    2.93    1.06
 -14   4  -2    5.71    1.40
   4  10  -2    2.02    0.70
 -14  10  -2    4.58    1.17
 -10  14  -2    2.16    0.73
  10   4  -2    3.71    1.19
  14  -4  -2    2.35    0.78
   4 -14  -2    3.65    1.24
  10 -14  -2    3.03    1.07
  -4 -10  -2    3.74    0.90
  14 -10  -2    2.47    0.64
 -10  -4  -2    2.29    0.59
 -10  -4  -2    4.10    0.59
  14 -10  -2    2.52    0.76
  -4 -10  -2    3.30    1.02
  10 -14  -2    3.35    1.05
 -10  -4   3    3.19    1.09
 -14  10   3    1.61    0.94
 -14   4   3    3.88    1.26
   4 -14   3    1.93    1.23
  10 -14   3    3.05    1.03
  -4 -10   3    2.58    0.92
  14 -10   3    1.25    0.97
 -10  -4   3    2.26    0.90
  -4  14  -3    1.26    0.75
  -4 -10  -3    1.79    0.51
   4  10  -3    1.63    0.83
 -10  -4  -3    3.54    1.10
 -14   4  -3    2.55    1.43
  10   4  -3    3.77    1.21
  14  -4  -3    2.64    0.79
 -14  10  -3    2.68    1.24
  10   4  -3    1.97    0.51
 -10  14  -3    2.46    1.19
  -4 -10  -3    1.93    0.94
   4  10  -3    2.58    1.05
  -4  14  -3    1.32    1.32
   4 -14  -3    3.07    1.20
 -14  10  -3    2.59    0.90
  10 -14  -3    2.98    1.08
  14 -10  -3    1.60    0.69
 -10  -4  -3    1.10    0.49
 -10  -4  -3    1.82    0.88
  14 -10  -3    2.24    0.66
  10 -14  -3    3.48    1.11
  -4 -10  -3    2.91    1.01
   4 -14  -3    3.56    0.84
 -14   4   4    1.42    1.25
 -14  10   4    0.24    0.93
  10 -14   4    0.67    1.03
   4 -14   4    0.61    1.17
  -4 -10   4    1.79    0.98
  14 -10   4    0.84    0.80
 -10  -4   4    0.59    0.74
  14  -4   4    0.29    0.55
   4  10  -4    1.13    1.01
  -4 -10  -4    1.04    0.73
  10   4  -4    1.55    1.26
  14  -4  -4   -0.10    1.25
 -10  -4  -4    1.36    1.15
 -14   4  -4    2.32    1.49
  14 -10  -4    1.07    1.07
  -4 -10  -4    0.29    1.00
  10 -14  -4    1.05    1.12
   4 -14  -4    2.95    1.19
 -10  14  -4    1.24    1.18
  -4  14  -4    1.56    1.27
   4  10  -4    3.37    1.05
  10   4  -4    0.93    0.63
 -14  10  -4    0.48    0.83
 -14   4  -4    1.12    0.46
  14  -4  -4    0.62    0.50
 -10  -4  -4    1.38    0.97
  14 -10  -4    1.54    0.97
  -4 -10  -4    3.11    0.99
  10 -14  -4    0.65    0.65
   4 -14  -4    1.27    1.37
 -14   4   5    4.80    1.47
   4 -14   5    5.76    1.46
  10 -14   5    5.27    1.24
  -4 -10   5    4.58    1.19
  14 -10   5    4.61    1.10
 -10  -4   5    3.42    1.02
  14  -4   5    4.52    1.24
 -14   4   5    3.12    0.66
   4  10  -5    4.15    1.50
  10   4  -5    3.86    1.52
  14  -4  -5    6.46    1.44
  14 -10  -5    5.06    1.34
  -4 -10  -5    4.09    0.76
 -10  -4  -5    7.05    1.52
 -10  14  -5    6.16    1.44
   4  10  -5    7.85    1.33
  -4  14  -5    5.83    1.52
 -14  10  -5    4.28    1.47
  10   4  -5    4.77    1.28
 -14   4  -5    3.31    0.96
  14  -4  -5    4.95    1.18
 -10  -4  -5    3.16    1.33
  14 -10  -5    4.88    1.28
  -4 -10  -5    5.22    0.74
  10 -14  -5    5.74    1.27
   4 -14  -5    9.68    1.51
   4 -14   6   -0.01    1.26
  10 -14   6   -2.52    1.14
  -4 -10   6    1.34    1.06
  14 -10   6   -1.26    1.05
 -10  -4   6    0.41    0.95
  14  -4   6    1.09    1.49
 -14   4   6    0.82    1.08
   4 -14  -6   -0.36    0.40
   4  10  -6   -0.09    1.56
  10   4  -6   -0.35    1.37
  10 -14  -6    1.04    0.79
  14  -4  -6   -0.01    1.28
  14 -10  -6   -0.02    1.26
  -4  14  -6    1.51    1.37
 -10  14  -6    1.15    1.29
   4  10  -6    0.39    1.20
 -14  10  -6    1.32    1.35
  10   4  -6    0.80    1.35
 -14   4  -6    1.79    0.74
  14  -4  -6    0.73    1.25
 -10  -4  -6    2.28    1.26
  14 -10  -6    0.34    1.22
  -4 -10  -6    0.25    1.08
  10 -14  -6   -0.60    1.09
   4 -14  -6    0.38    1.35
   4 -14   7   -0.51    1.35
  10 -14   7    0.18    1.23
  -4 -10   7    1.77    1.17
  14 -10   7    0.25    1.21
 -10  -4   7    0.57    1.45
  14  -4   7    3.34    1.96
 -14   4   7    0.73    1.02
   4 -14  -7   -0.74    0.81
   4  10  -7    0.39    1.79
  10   4  -7    1.49    1.48
  10 -14  -7   -0.49    1.07
  14  -4  -7    1.07    0.86
  14 -10  -7    0.39    1.38
 -10  14  -7    2.72    1.39
   4  10  -7    1.86    1.33
  -4  14  -7    1.09    0.89
 -14  10  -7   -1.54    1.18
  10   4  -7    1.02    1.69
 -14   4  -7    0.67    1.28
  14  -4  -7    1.79    1.09
 -10  -4  -7    0.13    1.09
  14 -10  -7   -1.14    1.38
  -4 -10  -7    0.09    1.17
  10 -14  -7    1.24    1.17
   4 -14  -7    0.56    1.43
   4 -14   8    0.04    1.45
  10 -14   8    1.92    1.36
  -4 -10   8   -0.06    1.29
  14 -10   8    1.64    1.83
 -10  -4   8    0.39    1.23
  14  -4   8   -1.93    1.81
 -14   4   8    1.54    1.61
   4 -14  -8    0.19    1.14
   4  10  -8    2.40    1.94
  10   4  -8    0.14    1.54
  10 -14  -8    0.22    1.44
  14  -4  -8    1.75    1.49
  14 -10  -8   -0.15    1.56
  -4  14  -8   -1.03    1.54
 -10  14  -8    0.87    1.52
   4  10  -8    0.04    1.47
 -14  10  -8    2.84    1.32
  10   4  -8    1.04    1.50
 -14   4  -8    0.24    1.16
  14  -4  -8    2.39    1.42
  14 -10  -8    0.56    1.19
 -10  -4  -8   -0.09    1.22
  -4 -10  -8    2.83    1.30
  10 -14  -8    0.39    1.31
   4 -14  -8    0.11    1.59
   4 -14  -8    0.60    1.48
   4 -14   9    1.73    1.64
  10 -14   9    0.60    1.52
  -4 -10   9    2.45    1.45
  14 -10   9    0.76    1.53
 -10  -4   9    1.50    1.40
  14  -4   9    4.79    2.02
 -14   4   9    1.52    1.46
   4 -14  -9    1.54    1.25
   4  10  -9    0.63    1.18
  10 -14  -9   -1.17    1.60
  10   4  -9    0.47    1.03
  14  -4  -9    0.81    1.68
  14 -10  -9    1.60    1.78
 -10  14  -9    1.26    1.67
   4  10  -9    1.35    1.62
  -4  14  -9    2.29    1.61
 -14  10  -9    0.62    1.55
  10   4  -9    0.38    1.78
 -14   4  -9    1.24    1.40
  14  -4  -9    3.62    1.81
 -10  -4  -9   -0.39    1.41
  14 -10  -9    1.79    1.35
  -4 -10  -9    0.97    1.48
  10 -14  -9    2.22    1.46
   4 -14  -9    0.84    1.68
  10 -14  10    1.08    1.55
   4 -14  10   -0.46    1.63
  -4 -10  10   -0.72    1.56
  14 -10  10    0.52    1.59
 -10  -4  10    3.36    2.01
  14  -4  10   -0.70    1.98
 -14   4  10   -1.46    1.63
  10   4  10    0.40    2.34
   4 -14 -10   -0.85    1.39
   4  10 -10    0.16    1.69
  10 -14 -10   -0.62    1.81
  10   4 -10   -0.02    1.66
  14  -4 -10    0.68    1.74
  14 -10 -10    1.37    1.94
 -10  14 -10   -0.37    1.74
  -4  14 -10   -1.60    1.73
   4  10 -10    0.21    1.68
 -14  10 -10    2.14    1.64
  10   4 -10   -0.93    1.83
 -14   4 -10    3.41    2.00
  14  -4 -10    0.27    1.99
 -10  -4 -10    0.27    1.42
  14 -10 -10   -0.67    1.43
  -4 -10 -10    0.36    1.50
  10 -14 -10   -0.44    1.46
   4 -14 -10    1.41    1.72
  -5 -10   0    1.78    0.85
 -10  15   0    2.32    0.42
 -10  -5   0    7.04    1.06
 -15  10   0    2.83    1.21
 -15   5   0    2.82    0.87
 -10  -5   0    5.00    0.71
  15 -10   0    3.93    0.67
 -10  -5   1   11.27    1.30
 -15   5   1   13.19    1.67
 -15  10   1   13.83    1.37
   5 -15   1   11.61    0.98
  -5 -10   1   12.25    1.11
  15 -10   1   11.33    0.99
  -5 -10  -1   10.14    0.76
 -10  -5  -1   13.23    1.27
 -15   5  -1   14.56    1.74
 -15  10  -1   13.80    1.51
  10 -15  -1   14.31    1.41
 -10  -5  -1   10.52    0.66
  -5 -10  -1   11.68    1.21
 -10  -5   2    1.89    0.99
 -15  10   2    2.23    0.98
 -15   5   2    1.17    1.24
   5 -15   2    0.81    1.15
  -5 -10   2    1.39    0.84
 -10  -5   2    1.87    0.61
  15 -10   2    0.32    0.83
  -5 -10  -2    0.71    0.50
 -10  -5  -2    3.36    1.00
 -15   5  -2    1.64    1.38
 -10  15  -2    0.51    0.56
 -15  10  -2   -0.51    1.20
   5  10  -2    1.20    0.96
  10   5  -2   -0.48    1.10
  10 -15  -2    1.38    0.67
  -5 -10  -2    3.38    0.86
 -10  -5  -2    0.69    0.47
  15 -10  -2    1.21    0.52
  15 -10  -2    1.10    0.70
 -10  -5  -2    0.42    0.55
  -5 -10  -2    0.98    0.94
   5 -15  -2    1.47    0.83
 -10  -5   3    6.59    1.19
 -15  10   3    5.51    1.16
 -15   5   3    6.22    1.49
   5 -15   3    7.44    1.39
  10 -15   3    8.51    1.23
  -5 -10   3    5.86    1.36
 -10  -5   3    4.18    1.09
  15 -10   3    4.78    1.20
  -5 -10  -3    4.89    0.86
 -10  -5  -3    6.29    1.23
 -15   5  -3    6.30    1.65
   5  10  -3    4.45    1.00
  10   5  -3    7.57    1.38
 -15  10  -3    5.79    1.46
  15  -5  -3    7.38    1.44
   5  10  -3    5.82    1.18
 -10  15  -3    5.25    1.41
  -5  15  -3    6.04    1.53
  10 -15  -3    6.40    0.84
   5 -15  -3    7.70    1.44
  -5 -10  -3    4.17    1.37
  15 -10  -3    4.12    1.01
 -10  -5  -3    4.46    1.06
  -5 -10  -3    5.20    1.09
  10 -15  -3    5.43    1.37
   5 -15  -3   10.57    1.60
 -15   5   4    0.47    1.31
 -15  10   4    1.84    0.98
   5 -15   4    0.32    1.21
  10 -15   4    1.97    1.10
  -5 -10   4    0.01    0.95
  15 -10   4    0.76    0.86
 -10  -5   4    0.39    0.78
  15  -5   4    0.31    0.43
   5  10  -4    0.20    1.03
  10   5  -4   -0.24    1.28
  -5 -10  -4    0.04    0.59
 -10  -5  -4   -0.45    1.12
  15  -5  -4    0.51    1.26
 -15   5  -4    2.05    0.94
  15 -10  -4   -0.27    1.15
 -15  10  -4   -0.14    1.33
 -10  15  -4    1.48    1.25
  10 -15  -4    2.04    0.71
  -5  15  -4    1.48    1.36
   5 -15  -4    1.71    0.75
 -10  -5  -4    0.66    0.58
  15 -10  -4    0.54    0.67
  -5 -10  -4    0.66    0.98
   5  10  -4    0.00    1.07
  10   5  -4    0.90    0.67
 -15  10  -4    0.56    0.70
 -15   5  -4    0.14    0.31
  15 -10  -4   -0.12    0.99
 -10  -5  -4    0.17    0.78
  -5 -10  -4    0.90    0.96
  10 -15  -4    1.46    1.11
   5 -15  -4    2.06    1.43
 -15   5   5   10.54    1.67
  10 -15   5    8.58    1.50
   5 -15   5   10.60    1.66
  -5 -10   5    8.58    1.35
  15 -10   5    5.92    1.39
 -10  -5   5    5.84    1.21
  15  -5   5    6.17    1.35
   5  10  -5    7.51    1.73
  10   5  -5    8.83    1.82
  15  -5  -5    8.86    1.69
  15 -10  -5    9.11    1.60
 -10  -5  -5   10.49    1.65
 -15   5  -5    8.25    2.02
  10 -15  -5    8.95    1.58
   5 -15  -5    9.81    1.67
 -10  15  -5   10.05    1.68
  -5  15  -5    9.75    1.83
   5  10  -5    7.94    1.50
 -15  10  -5    7.30    1.25
  10   5  -5    9.09    1.49
  15  -5  -5    5.49    1.34
  15 -10  -5    5.24    1.50
 -10  -5  -5    6.33    1.18
  -5 -10  -5    5.58    1.32
  10 -15  -5    9.10    0.94
   5 -15  -5   11.76    1.75
  10 -15   6   -0.16    1.18
   5 -15   6    0.57    1.32
  -5 -10   6    0.06    1.09
  15 -10   6   -0.75    1.16
 -10  -5   6    0.61    1.02
  15  -5   6   -1.14    1.51
   5  10  -6   -0.83    1.60
  10   5  -6   -1.02    1.50
  15  -5  -6   -0.73    1.35
  10 -15  -6    0.11    0.60
  15 -10  -6    0.57    1.32
  -5 -10  -6    0.40    0.83
 -10  15  -6    1.59    0.84
  -5  15  -6   -1.06    1.39
   5  10  -6   -0.64    1.29
 -15  10  -6    0.85    1.06
  10   5  -6    0.91    1.43
 -15   5  -6    1.51    0.77
  15  -5  -6    0.08    1.32
  15 -10  -6    1.03    1.25
 -10  -5  -6    0.57    0.98
  -5 -10  -6    0.19    1.07
  10 -15  -6    0.92    1.20
   5 -15  -6   -0.85    1.44
  10 -15   7    5.39    1.45
   5 -15   7    4.67    1.63
  -5 -10   7    4.61    1.39
 -10  -5   7    3.10    1.31
  15 -10   7    0.89    2.01
  15  -5   7    4.69    1.79
 -15   5   7    2.94    1.65
   5  10  -7    5.16    2.24
  10   5  -7    4.18    1.83
  15  -5  -7    2.51    1.66
  15 -10  -7    2.92    1.69
  -5  15  -7    7.14    1.71
 -10  15  -7    4.25    1.66
   5  10  -7    3.54    1.60
 -15  10  -7    3.04    1.38
  10   5  -7    5.64    2.07
 -15   5  -7    1.29    1.10
  15  -5  -7    2.83    1.31
  15 -10  -7    3.75    1.29
 -10  -5  -7    3.30    1.28
  -5 -10  -7    3.50    1.36
  10 -15  -7    1.88    1.45
   5 -15  -7    4.91    1.71
  10 -15   8   -0.34    1.40
   5 -15   8    0.95    1.50
  -5 -10   8   -1.65    1.33
 -10  -5   8    0.75    1.24
  15 -10   8    1.06    1.46
  15  -5   8    1.10    1.89
 -15   5   8   -1.15    1.29
   5  10  -8    0.70    2.06
  10   5  -8   -0.21    1.70
  10 -15  -8    0.42    0.83
  15  -5  -8   -0.10    1.51
  15 -10  -8   -0.46    1.61
 -10  15  -8   -0.59    1.58
  -5  15  -8    1.25    0.98
   5  10  -8   -0.17    1.52
 -15  10  -8    1.03    1.81
  10   5  -8    1.90    1.64
 -15   5  -8    2.27    1.12
  15  -5  -8    1.07    1.54
  15 -10  -8    0.94    1.24
 -10  -5  -8    1.60    1.64
  -5 -10  -8   -1.40    1.26
  10 -15  -8   -0.37    1.40
   5 -15  -8   -0.33    1.59
  10 -15   9    2.16    1.61
   5 -15   9    2.73    1.80
  -5 -10   9    2.55    1.57
  15 -10   9   -0.36    1.71
 -10  -5   9    2.04    1.52
  15  -5   9   -0.56    2.23
 -15   5   9    0.29    2.16
   5  10  -9    3.68    2.22
  10   5  -9    1.25    1.84
  10 -15  -9    1.58    1.61
  15  -5  -9    5.19    1.82
  15 -10  -9    1.54    1.95
  -5  15  -9    0.93    1.79
 -10  15  -9    2.11    1.78
   5  10  -9    1.75    1.83
  10   5  -9    3.22    2.06
 -15  10  -9    2.14    1.64
 -15   5  -9    2.63    1.48
  15  -5  -9    1.95    2.05
  15 -10  -9    1.28    1.46
 -10  -5  -9    1.48    1.48
  -5 -10  -9    0.09    1.50
  10 -15  -9    1.82    0.96
   5 -15  -9    1.98    1.87
   5 -15  10    0.53    1.83
  10 -15  10    0.33    1.67
  -5 -10  10    0.35    1.62
  15 -10  10   -1.90    2.49
 -10  -5  10   -0.48    1.60
  15  -5  10    0.99    2.15
 -15   5  10   -1.30    1.84
   5  10 -10    0.17    1.97
  10 -15 -10    1.33    1.44
  10   5 -10   -0.45    1.85
  15  -5 -10    3.53    1.93
  15 -10 -10    1.31    2.09
 -10  15 -10    0.81    1.89
  -5  15 -10   -0.57    1.83
   5  10 -10    4.89    1.89
 -15  10 -10    3.95    1.76
  10   5 -10    0.38    2.16
 -15   5 -10    0.61    1.61
  15  -5 -10    1.20    2.20
  15 -10 -10   -0.37    1.51
 -10  -5 -10    0.44    1.51
  -5 -10 -10   -1.46    1.57
  10 -15 -10    1.03    1.64
   5 -15 -10    1.41    1.81
  -6 -10   0   46.38    1.93
 -10  -6   0   55.55    2.46
 -10  -6   0   51.69    1.75
 -10  -6   0   47.81    1.72
 -10  -6   1    0.50    1.07
  16 -10   1    2.86    0.76
  16 -10   1    1.69    0.50
 -10  16  -1    0.71    0.33
 -16  10  -1   -1.38    1.28
 -10  -6  -1    2.28    0.52
 -10  -6  -1    2.31    0.54
 -10  -6   2   13.58    1.43
 -16  10   2   15.52    1.55
 -16   6   2   15.99    1.75
  -6 -10   2   12.39    1.21
 -10  -6   2   13.06    1.32
  16 -10   2   14.52    1.40
  -6 -10  -2   11.85    0.85
 -10  -6  -2   16.63    1.81
 -16  10  -2   14.95    1.84
 -16   6  -2   15.86    2.07
  10   6  -2   13.05    1.60
  -6 -10  -2   13.41    1.17
  16 -10  -2   13.40    1.14
 -10  -6  -2   10.82    1.12
  -6 -10  -2   14.81    1.70
   6 -16  -2   17.06    1.24
 -10  -6   3    0.94    1.00
 -16   6   3    1.96    1.31
 -16  10   3   -0.56    1.09
   6 -16   3    0.13    1.28
  10 -16   3    2.29    1.14
  -6 -10   3   -0.07    0.88
 -10  -6   3    0.74    0.76
  16 -10   3    0.60    0.86
  -6  16  -3    0.59    0.51
  -6 -10  -3   -0.16    0.61
 -10  -6  -3    1.49    0.99
 -16   6  -3   -2.46    1.54
 -16  10  -3    1.06    1.33
   6  10  -3    1.67    0.89
  10   6  -3    2.73    1.21
  16  -6  -3    0.95    0.79
 -10  16  -3   -0.16    1.31
  -6  16  -3    2.18    1.36
  10 -16  -3    0.59    1.23
   6 -16  -3    1.31    1.33
  -6 -10  -3    0.89    0.84
 -10  -6  -3    0.37    0.73
  16 -10  -3    1.06    0.49
  16 -10  -3    0.77    0.89
 -10  -6  -3    1.02    0.67
  -6 -10  -3   -0.07    0.88
  10 -16  -3    0.77    1.28
   6 -16  -3    0.15    1.47
 -16   6   4   13.40    1.79
 -16  10   4    8.97    0.96
   6 -16   4   12.60    1.73
  10 -16   4   11.91    1.03
  -6 -10   4   10.67    1.29
 -10  -6   4    7.84    1.57
  16 -10   4    8.77    1.44
  -6 -10  -4    7.81    1.21
   6  10  -4    8.52    1.53
 -10  -6  -4   13.23    1.53
  10   6  -4    9.88    1.83
  16  -6  -4   11.68    1.76
 -16   6  -4   12.50    2.16
 -16  10  -4   10.79    2.04
  16 -10  -4   13.16    1.64
 -10  16  -4   12.74    1.18
  10 -16  -4   13.64    1.69
  -6 -10  -4   10.60    1.32
   6  10  -4   11.30    1.54
  -6  16  -4   13.47    1.22
   6 -16  -4   12.38    1.79
  10   6  -4    8.47    1.04
  16 -10  -4    8.64    1.18
 -10  -6  -4    7.59    1.11
  -6 -10  -4    7.64    1.30
  10 -16  -4   11.73    1.66
   6 -16  -4   12.63    2.01
 -16   6   5    2.11    1.40
  10 -16   5    2.61    1.30
   6 -16   5    1.77    1.46
  -6 -10   5    2.80    1.12
 -10  -6   5    3.18    1.33
  16 -10   5    3.64    1.23
  16  -6   5    1.53    1.03
   6  10  -5   -0.15    1.45
  -6 -10  -5    2.11    0.79
  10   6  -5    3.19    0.98
  16  -6  -5    2.15    1.43
 -10  -6  -5    1.31    1.30
 -16   6  -5    1.47    1.78
  16 -10  -5    2.17    1.38
 -16  10  -5    2.20    1.64
  -6 -10  -5    1.71    1.10
 -10  -6  -5    1.83    0.79
  10 -16  -5    1.98    1.39
   6 -16  -5    2.62    1.46
 -10  16  -5    2.35    1.46
  -6  16  -5    4.74    1.51
   6  10  -5    0.40    1.29
  10   6  -5    0.25    1.27
 -16  10  -5    1.02    0.88
 -16   6  -5    0.70    0.61
  16  -6  -5   -0.34    0.81
  16 -10  -5    1.39    0.99
 -10  -6  -5    2.05    1.29
  -6 -10  -5    1.17    1.04
  10 -16  -5    0.99    1.32
   6 -16  -5    1.65    1.50
  10 -16   6    4.33    1.49
   6 -16   6    4.79    1.62
  -6 -10   6    2.87    1.36
 -10  -6   6    2.70    1.68
  16 -10   6    3.10    1.59
  16  -6   6    5.73    1.85
   6  10  -6    4.43    2.03
  10   6  -6    3.95    1.88
  16 -10  -6    3.87    1.63
  16  -6  -6    4.33    1.57
  -6 -10  -6    4.21    1.03
 -10  -6  -6    4.23    1.66
 -16   6  -6    5.35    1.31
  10 -16  -6    5.26    1.01
   6 -16  -6    4.72    1.04
 -10  16  -6    5.56    1.70
  -6  16  -6    6.20    1.77
   6  10  -6    2.85    1.55
  10   6  -6    4.19    1.35
 -16  10  -6    2.94    1.36
 -16   6  -6    3.23    1.17
  16  -6  -6    3.54    1.68
  16 -10  -6    4.83    1.67
 -10  -6  -6    3.74    1.24
  -6 -10  -6    3.72    1.28
  10 -16  -6    4.45    1.51
   6 -16  -6    5.52    1.75
  10 -16   7   -1.25    1.36
   6 -16   7   -3.09    1.50
  -6 -10   7    0.42    1.24
 -10  -6   7    2.73    1.57
  16 -10   7   -1.71    1.94
  16  -6   7   -0.85    1.61
   6  10  -7   -1.59    2.07
  10   6  -7    0.12    1.76
  16  -6  -7   -0.98    1.50
  16 -10  -7    0.54    1.53
  10 -16  -7   -0.75    0.61
  -6 -10  -7    0.65    1.08
 -10  16  -7   -0.99    1.53
   6  10  -7    0.62    1.47
  -6  16  -7    1.47    0.95
  10   6  -7    0.35    1.91
 -16  10  -7   -0.30    1.20
 -16   6  -7    2.16    1.47
  16  -6  -7    0.94    1.17
  16 -10  -7    0.18    1.20
 -10  -6  -7    2.52    1.14
  -6 -10  -7    1.64    1.16
  10 -16  -7    0.13    1.35
   6 -16  -7    2.65    1.55
  10 -16   8    0.99    1.63
   6 -16   8    3.46    1.75
  -6 -10   8    3.80    1.48
 -10  -6   8    2.69    1.49
  16 -10   8    2.30    1.85
  16  -6   8    3.17    2.27
 -16   6   8    0.37    1.39
   6  10  -8    3.85    2.58
  10   6  -8    1.77    2.03
  16  -6  -8    3.24    1.79
  16 -10  -8    4.70    1.88
  -6  16  -8   -0.80    1.83
 -10  16  -8    3.48    1.82
   6  10  -8    3.36    1.80
 -16  10  -8    0.90    1.56
  10   6  -8    3.99    1.96
 -16   6  -8    3.65    1.80
  16  -6  -8    3.09    2.54
  16 -10  -8    0.43    1.49
 -10  -6  -8    2.43    1.42
  -6 -10  -8    0.70    1.40
  10 -16  -8    2.97    1.63
   6 -16  -8    4.38    1.76
   6 -16   9    1.47    1.74
  10 -16   9    2.92    1.05
  -6 -10   9    0.53    1.56
 -10  -6   9    0.58    1.52
  16 -10   9    1.67    1.97
  16  -6   9    0.30    2.43
 -16   6   9    1.53    2.42
   6  10  -9    0.51    2.49
  10   6  -9    1.61    2.06
  16  -6  -9    3.69    1.88
  16 -10  -9   -0.74    2.01
 -10  16  -9    1.84    1.15
  -6  16  -9    0.37    1.87
   6  10  -9    0.47    1.98
  10   6  -9   -0.58    2.18
 -16  10  -9    1.67    2.20
 -16   6  -9   -1.90    1.51
  16  -6  -9    0.04    2.07
  16 -10  -9   -0.31    1.55
 -10  -6  -9    1.59    1.51
  -6 -10  -9    0.70    1.48
  10 -16  -9    3.71    1.65
   6 -16  -9    2.90    1.84
  -7 -10   0    0.51    0.69
 -10  -7   0    0.82    0.58
  17 -10   0    1.13    0.60
  17 -10   0    1.62    0.46
 -10  -7   1    8.54    1.26
  -7 -10   1   10.74    1.07
 -10  -7   1   11.37    0.85
  17 -10   1   12.87    1.11
  -7 -10  -1    9.21    0.89
 -10  -7  -1   12.00    1.20
 -17  10  -1   12.25    1.74
 -10  -7  -1    9.20    0.99
  17 -10  -1    9.37    0.70
  17 -10  -1   10.13    0.84
  -7 -10  -1   11.52    1.12
 -10  -7   2    1.31    0.99
 -17  10   2    3.74    1.21
 -17   7   2    1.47    1.37
  -7 -10   2    1.83    0.83
 -10  -7   2    2.90    0.92
  17 -10   2    1.58    0.94
  -7 -10  -2    0.78    0.86
 -10  -7  -2    0.81    0.93
 -10  17  -2    0.87    0.34
 -17   7  -2   -1.46    1.59
 -17  10  -2   -2.26    1.43
  -7 -10  -2    0.25    0.81
 -10  -7  -2    0.24    0.76
  17 -10  -2    1.20    0.42
  17 -10  -2    1.77    0.77
 -10  -7  -2    0.67    0.60
  -7 -10  -2    1.02    0.86
 -17   7   3    8.07    1.65
 -17  10   3    8.40    1.46
  10 -17   3    8.83    1.50
   7 -17   3    6.82    1.62
  -7 -10   3    7.23    1.12
 -10  -7   3    6.93    1.03
  17 -10   3    7.97    1.20
  -7 -10  -3    6.48    0.82
 -10  -7  -3    8.14    1.21
 -17   7  -3    7.15    1.98
 -17  10  -3    8.85    1.81
   7  10  -3    6.52    1.62
  10   7  -3    7.09    1.55
  10 -17  -3    8.37    1.60
  -7 -10  -3    6.60    1.06
   7 -17  -3    9.88    1.65
  17 -10  -3    6.00    1.22
 -10  -7  -3    5.11    1.11
  -7 -10  -3    7.13    1.08
  10 -17  -3    7.81    1.70
   7 -17  -3    8.21    1.86
 -17   7   4    1.05    1.41
 -17  10   4    0.78    1.24
  10 -17   4    2.26    1.32
   7 -17   4    0.58    1.41
  -7 -10   4    1.63    1.01
 -10  -7   4    1.89    0.97
  17 -10   4    2.11    1.47
  -7 -10  -4    1.07    0.73
 -10  -7  -4    1.61    1.06
   7  10  -4    1.09    1.21
 -17   7  -4    1.89    1.73
  10   7  -4    1.02    1.45
 -17  10  -4   -0.21    1.67
  17  -7  -4    1.36    1.42
   7  10  -4    1.80    1.15
 -10  17  -4    3.23    1.47
  -7  17  -4    1.45    1.54
  10 -17  -4    2.78    1.38
  -7 -10  -4    2.92    1.28
   7 -17  -4    2.40    1.44
 -10  -7  -4    1.54    0.71
  17 -10  -4    0.63    0.49
  17 -10  -4    1.66    1.26
 -10  -7  -4    1.38    0.80
  -7 -10  -4    0.46    0.93
  10 -17  -4    1.00    1.39
   7 -17  -4    3.81    1.62
 -17   7   5    6.78    1.69
  10 -17   5    6.21    1.04
   7 -17   5    5.21    1.74
  -7 -10   5    6.06    1.33
 -10  -7   5    6.56    1.29
  17 -10   5    4.90    2.09
  -7 -10  -5    4.13    1.03
   7  10  -5    5.87    1.86
 -10  -7  -5    6.81    1.50
  10   7  -5    7.82    1.99
  17 -10  -5    6.74    1.76
 -17   7  -5    9.38    1.38
  17  -7  -5    7.85    1.78
 -17  10  -5    9.28    2.11
 -10  17  -5    9.25    1.84
  10 -17  -5    6.59    1.72
  -7 -10  -5    6.80    1.75
   7  10  -5    6.45    1.57
  -7  17  -5    9.89    1.88
   7 -17  -5    9.67    1.76
 -10  -7  -5    5.92    1.33
  10   7  -5    5.92    1.24
  17 -10  -5    4.35    1.38
 -10  -7  -5    5.55    1.12
  -7 -10  -5    5.46    1.23
  10 -17  -5    6.66    1.69
   7 -17  -5    8.31    1.86
  10 -17   6    1.37    0.91
   7 -17   6    2.24    1.60
  -7 -10   6    2.59    1.24
 -10  -7   6    1.79    1.21
  17 -10   6    2.38    1.57
   7  10  -6    5.15    1.95
  10   7  -6    0.18    1.90
  -7 -10  -6    1.38    1.00
  17  -7  -6    1.35    1.58
 -10  -7  -6    1.54    1.43
  17 -10  -6    3.47    1.60
 -17  10  -6    2.12    1.18
  10 -17  -6    0.87    1.57
  -7 -10  -6    2.15    1.30
   7 -17  -6    1.66    1.60
 -10  17  -6    1.62    1.03
   7  10  -6    1.09    1.48
  -7  17  -6    0.89    1.72
  10   7  -6    1.82    1.31
 -17  10  -6    0.28    1.32
 -17   7  -6    2.75    0.87
  17 -10  -6    2.89    1.68
 -10  -7  -6    2.88    1.06
  -7 -10  -6   -0.18    1.15
  10 -17  -6    1.64    1.51
   7 -17  -6    2.23    1.66
  10 -17   7    2.20    1.58
   7 -17   7    1.41    1.67
  -7 -10   7    3.17    1.42
 -10  -7   7    3.05    1.39
  17 -10   7    2.64    2.46
   7  10  -7    3.91    2.40
  10   7  -7    3.58    2.12
  17  -7  -7    3.67    1.74
  17 -10  -7    2.82    1.77
  -7 -10  -7    2.07    1.23
 -10  -7  -7    3.48    1.80
   7 -17  -7    2.28    1.05
  -7  17  -7    4.46    1.81
 -10  17  -7    1.94    1.78
   7  10  -7    3.08    1.74
  10   7  -7    2.75    1.72
 -17  10  -7   -0.90    1.87
 -17   7  -7    0.88    1.03
  17 -10  -7    2.38    1.44
 -10  -7  -7    2.01    1.21
  -7 -10  -7    2.10    1.27
  10 -17  -7    0.49    1.61
   7 -17  -7    3.39    1.77
   7 -17   8    1.98    1.75
  10 -17   8    1.88    1.62
  -7 -10   8    1.04    1.45
 -10  -7   8   -0.52    1.44
  17 -10   8    3.57    2.04
   7  10  -8    0.59    2.64
  10   7  -8    0.03    2.20
  17  -7  -8    2.15    1.82
  17 -10  -8    1.28    1.86
 -10  17  -8    1.27    1.11
   7  10  -8    1.95    1.91
  -7  17  -8    0.99    1.14
  10   7  -8   -1.68    1.98
 -17  10  -8   -0.31    2.02
 -17   7  -8    1.19    1.36
  17 -10  -8    1.49    1.53
 -10  -7  -8    1.69    1.29
  -7 -10  -8    0.40    1.31
  10 -17  -8   -0.35    1.66
   7 -17  -8    3.01    1.78
   7 -17   9    0.52    1.83
  10 -17   9    2.07    1.79
  -7 -10   9    0.91    1.65
 -10  -7   9    1.06    1.61
  17 -10   9    1.66    3.02
  17  -7   9    1.92    2.68
   7  10  -9   -1.35    2.77
  10   7  -9    1.14    2.29
  17  -7  -9    3.63    2.01
  17 -10  -9    1.90    1.31
 -10  17  -9    3.06    1.96
  -7  17  -9    1.71    1.95
   7  10  -9    2.76    2.15
  10   7  -9   -2.34    2.43
 -17  10  -9    0.08    1.73
 -17   7  -9    1.62    2.27
  17 -10  -9   -0.85    1.66
 -10  -7  -9    2.25    1.43
  -7 -10  -9    1.17    1.43
  10 -17  -9    0.12    1.74
   7 -17  -9    0.18    1.95
  -8 -10   0    1.42    0.76
 -10  -8   0    1.24    0.95
  -8 -10   1    3.15    0.89
 -10  -8   1    5.22    1.11
 -18  10   1    6.98    1.52
 -18   8   1    7.86    1.65
  -8 -10   1    5.97    0.91
 -10  -8   1    5.66    1.04
  -8 -10  -1    4.29    0.84
 -10  -8  -1    6.27    1.02
 -18  10  -1    6.19    1.64
 -10  -8  -1    4.78    0.94
  -8 -10  -1    6.62    0.97
 -10  -8   2   -0.02    0.92
 -18   8   2    1.64    1.38
 -18  10   2    1.20    1.30
  -8 -10   2   -0.20    0.81
 -10  -8   2    0.33    0.71
  -8 -10  -2    1.87    0.68
 -10  -8  -2    0.87    0.87
 -18   8  -2   -0.65    1.57
 -18  10  -2    0.58    1.47
  -8 -10  -2    0.79    0.75
 -10  -8  -2    0.65    0.60
 -10  -8  -2    0.48    0.62
  -8 -10  -2    1.18    1.05
 -18   8   3    5.06    1.51
 -18  10   3    4.31    1.38
  10 -18   3    2.45    1.42
   8 -18   3    1.88    1.49
  -8 -10   3    3.43    0.97
 -10  -8   3    3.07    1.18
  -8 -10  -3    1.59    1.02
 -10  -8  -3    3.51    1.02
 -18  10  -3    6.31    1.69
 -18   8  -3    3.29    1.80
   8  10  -3    3.62    1.12
  10   8  -3    2.12    1.33
  10 -18  -3    4.92    1.51
   8 -18  -3    3.84    1.57
  -8 -10  -3    2.35    0.89
 -10  -8  -3    1.83    0.72
 -10  -8  -3    1.31    0.75
  -8 -10  -3    2.94    0.89
  10 -18  -3    4.69    1.65
   8 -18  -3    4.22    1.67
 -18  10   4    0.62    1.29
 -18   8   4   -0.10    1.43
  10 -18   4   -0.48    1.39
   8 -18   4    1.16    1.43
  -8 -10   4    1.45    0.96
 -10  -8   4    1.14    1.24
  -8 -10  -4   -0.33    0.79
 -10  -8  -4    1.66    1.02
   8  10  -4   -0.76    1.24
 -18   8  -4    2.33    1.75
 -18  10  -4    4.45    1.73
  10   8  -4    0.77    1.44
 -10  18  -4    1.91    1.57
  -8  18  -4    1.23    1.59
  10 -18  -4    0.95    1.45
   8 -18  -4    3.23    1.47
  -8 -10  -4    0.66    0.90
 -10  -8  -4   -0.33    0.97
 -10  -8  -4    0.41    1.04
  -8 -10  -4    0.66    0.85
  10 -18  -4    0.23    1.47
   8 -18  -4    3.33    1.68
 -18   8   5    7.92    1.66
 -18  10   5    6.43    1.48
  10 -18   5    3.67    1.67
   8 -18   5    5.35    1.73
  -8 -10   5    2.57    1.27
 -10  -8   5    3.19    1.28
  -8 -10  -5    3.72    1.02
 -10  -8  -5    4.81    1.35
   8  10  -5    5.29    1.81
  10   8  -5    6.03    1.95
 -18   8  -5    8.54    2.17
  18  -8  -5    7.64    1.80
 -18  10  -5    5.79    2.15
  18 -10  -5    4.64    1.76
  10   8  -5    3.40    1.25
 -10  18  -5    6.16    1.87
   8  10  -5    6.21    1.50
  -8  18  -5    6.15    1.90
  10 -18  -5    6.48    1.74
  -8 -10  -5    1.58    1.24
   8 -18  -5    6.99    1.79
 -10  -8  -5    2.04    1.03
 -10  -8  -5    3.06    1.38
  -8 -10  -5    3.21    1.15
  10 -18  -5    5.54    1.74
   8 -18  -5    5.26    1.85
  10 -18   6    1.14    1.51
   8 -18   6    1.11    1.57
  -8 -10   6    0.66    1.23
 -10  -8   6    0.38    1.25
  -8 -10  -6    0.47    1.03
   8  10  -6    2.41    1.96
  10   8  -6    1.76    2.02
  18  -8  -6    0.60    1.68
 -18  10  -6    1.07    2.04
  18 -10  -6    4.30    1.68
 -10  18  -6    3.73    1.69
  10 -18  -6    1.63    1.02
  -8 -10  -6    0.05    1.23
   8  10  -6    3.60    1.50
  -8  18  -6   -0.69    1.76
   8 -18  -6    1.33    0.99
 -10  -8  -6   -0.52    1.05
  10   8  -6    0.30    1.34
 -10  -8  -6   -0.91    1.38
  -8 -10  -6    1.01    1.08
  10 -18  -6    3.63    1.59
   8 -18  -6   -0.33    1.70
  10 -18   7    1.33    1.73
   8 -18   7    2.51    1.77
  -8 -10   7    0.52    1.45
 -10  -8   7    1.80    1.52
   8  10  -7    4.80    2.61
  10   8  -7    3.67    2.46
  18  -8  -7    5.59    1.84
  18 -10  -7    1.49    1.89
 -10  -8  -7    5.04    1.72
 -18  10  -7    3.15    1.43
  10 -18  -7    1.44    1.80
  -8 -10  -7    2.55    1.54
   8 -18  -7    3.91    1.80
 -10  18  -7    3.12    1.19
   8  10  -7    1.41    1.91
  -8  18  -7    4.47    1.19
  10   8  -7    0.59    1.83
 -10  -8  -7   -0.29    1.62
  -8 -10  -7   -0.73    1.24
  10 -18  -7    1.68    1.72
   8 -18  -7    0.77    1.84
   8 -18   8    0.54    1.79
  10 -18   8   -0.02    1.73
  -8 -10   8    0.23    1.52
 -10  -8   8    0.99    2.00
   8  10  -8    2.27    2.84
  10   8  -8   -0.55    1.56
  18  -8  -8    1.67    1.93
  18 -10  -8   -1.59    1.98
   8 -18  -8    2.15    1.13
  -8  18  -8    1.71    1.92
 -10  18  -8   -0.26    1.92
   8  10  -8    1.62    2.08
  10   8  -8    1.24    2.84
 -10  -8  -8    1.31    1.22
  -8 -10  -8    1.22    1.27
  10 -18  -8    1.13    1.70
   8 -18  -8    1.83    1.85
  -9 -10   0   17.65    1.33
 -10  -9   0   16.21    1.43
  10 -19   0   22.35    1.43
 -10  -9   1    0.75    0.95
  10 -19   1    1.51    0.86
  -9 -10  -1    2.04    0.82
 -19   9  -1    2.13    1.03
 -19  10  -1    2.51    1.63
  -9 -10  -1    2.01    0.78
 -10  -9  -1    2.85    0.72
 -19  10   2    8.92    1.69
 -19   9   2    7.77    1.73
  10 -19   2    7.24    1.05
  -9 -10   2    5.54    0.99
 -10  -9   2    5.56    0.94
  -9 -10  -2    5.69    0.91
 -10  -9  -2    5.88    1.36
 -19  10  -2    8.02    1.23
 -19   9  -2   10.73    1.98
  10 -19  -2    9.76    1.73
   9 -19  -2   10.22    1.76
  -9 -10  -2    4.35    0.91
 -10  -9  -2    4.52    1.07
  -9 -10  -2    5.55    0.92
 -10  -9  -2    4.57    0.83
 -19   9   3   -1.64    1.42
 -19  10   3   -0.80    1.34
  10 -19   3   -0.21    1.34
   9 -19   3   -0.99    1.40
  -9 -10   3   -0.30    1.14
 -10  -9   3    0.61    0.81
  -9 -10  -3   -0.71    0.75
 -10  -9  -3    1.61    1.15
 -19   9  -3   -2.91    1.78
 -19  10  -3   -0.04    1.67
   9 -19  -3   -0.99    1.50
  10 -19  -3   -2.71    1.47
  -9 -10  -3    0.70    0.77
 -10  -9  -3    0.97    0.67
 -10  -9  -3    0.22    0.69
  -9 -10  -3   -0.66    0.74
  10 -19  -3   -1.38    1.64
   9 -19  -3    0.41    1.72
 -19  10   4    3.52    1.64
 -19   9   4    7.71    1.74
  10 -19   4    7.53    1.64
   9 -19   4    6.65    1.69
  -9 -10   4    5.87    1.52
 -10  -9   4    3.55    1.12
  -9 -10  -4    3.94    1.03
 -10  -9  -4    4.90    1.53
 -19   9  -4    7.55    2.20
 -19  10  -4    7.57    2.10
   9  10  -4    5.43    1.59
  10   9  -4    6.81    1.70
  10 -19  -4    9.35    1.79
  -9 -10  -4    3.71    1.04
   9 -19  -4    7.52    1.81
 -10  -9  -4    3.67    0.94
 -10  -9  -4    2.53    0.95
  -9 -10  -4    2.93    1.32
  10 -19  -4    6.90    1.88
   9 -19  -4    7.25    2.00
 -19   9   5    2.26    1.49
 -19  10   5   -0.21    1.43
  10 -19   5    4.01    1.55
   9 -19   5    1.40    1.62
  -9 -10   5    1.47    1.08
 -10  -9   5   -0.56    1.48
  -9 -10  -5   -0.90    0.96
 -10  -9  -5    1.00    1.12
   9  10  -5    0.80    1.67
 -19   9  -5   -0.37    2.07
 -19  10  -5    2.77    1.99
  10   9  -5    2.88    1.74
  19  -9  -5    1.88    1.00
 -10  19  -5    1.26    1.73
  -9  19  -5    2.54    1.76
  10 -19  -5    1.53    1.68
  -9 -10  -5    0.82    1.03
   9 -19  -5   -1.04    1.66
 -10  -9  -5    1.52    0.94
 -10  -9  -5    0.16    0.92
  -9 -10  -5    1.55    1.28
  10 -19  -5    2.66    1.66
   9 -19  -5    2.04    1.74
  10 -19   6    2.49    1.73
   9 -19   6    1.72    1.79
  -9 -10   6    1.02    1.33
 -10  -9   6    1.61    1.77
  -9 -10  -6    3.05    1.20
   9  10  -6    3.60    2.23
 -10  -9  -6    2.37    1.40
  10   9  -6    5.44    2.26
  19  -9  -6    1.04    1.89
 -19  10  -6    6.09    2.29
  19 -10  -6    5.11    1.93
 -10  19  -6    3.28    1.20
  10 -19  -6    2.11    1.82
  -9 -10  -6    1.77    1.32
   9  10  -6    2.87    1.70
  -9  19  -6    2.58    1.21
   9 -19  -6    3.90    1.86
 -10  -9  -6    1.42    1.21
  10   9  -6    3.35    1.56
 -10  -9  -6    1.12    1.07
  -9 -10  -6    3.72    1.49
  10 -19  -6    1.72    1.83
   9 -19  -6    1.13    1.89
  10 -19   7   -1.52    1.70
   9 -19   7    0.33    1.72
  -9 -10   7    0.22    1.34
 -10  -9   7   -0.73    1.35
  -9 -10  -7   -0.15    1.29
   9  10  -7   -0.55    2.52
 -10  -9  -7    0.40    1.48
  10   9  -7    4.56    2.49
  19  -9  -7    2.46    1.81
  19 -10  -7   -1.18    1.85
  10 -19  -7    2.52    1.78
  -9 -10  -7    0.62    1.42
   9 -19  -7    3.39    1.78
 -10  19  -7    2.50    1.87
   9  10  -7    3.72    1.86
  -9  19  -7   -0.73    1.83
  10   9  -7   -1.85    1.79
 -10  -9  -7    1.15    1.10
  -9 -10  -7    0.11    1.14
  10 -19  -7   -0.03    1.70
   9 -19  -7   -2.43    1.78
 -10 -10   0    0.39    0.84
 -20  10   0    2.84    1.56
 -10 -10   1    0.58    0.85
 -10 -10  -1    1.15    0.81
 -20  10  -1    0.17    1.63
 -20  10   2    1.96    0.89
 -10 -10   2   -0.23    0.76
 -10 -10  -2    0.33    0.80
 -20  10  -2   -1.23    1.68
 -10 -10  -2    0.25    0.68
 -10 -10  -2   -0.45    0.68
 -20  10   3   -0.01    0.88
  10 -20   3   -0.89    0.85
 -10 -10   3    0.65    0.84
 -10 -10  -3   -0.19    0.80
 -20  10  -3    2.01    1.74
  10 -20  -3   -0.79    1.54
 -10 -10  -3    0.42    0.72
 -10 -10  -3    0.24    0.71
  10 -20  -3   -0.38    1.74
 -20  10   4    1.90    0.91
  10 -20   4   -1.42    1.47
 -10 -10   4   -1.14    0.94
 -10 -10  -4    0.34    0.88
 -20  10  -4   -1.50    1.94
  10  10  -4   -0.87    1.34
  10 -20  -4   -0.45    1.58
 -10 -10  -4   -0.68    1.09
 -10 -10  -4   -0.38    0.81
  10 -20  -4   -0.75    1.71
 -20  10   5   -0.24    1.47
  10 -20   5    0.56    1.62
 -10 -10   5    0.63    1.07
 -10 -10  -5   -0.53    1.02
 -20  10  -5   -2.84    2.13
  10  10  -5    1.24    1.70
  10 -20  -5    2.11    1.69
 -10 -10  -5    0.97    1.27
 -10 -10  -5    0.77    0.91
  10 -20  -5    1.54    1.75
 -11   0   0    3.39    0.62
 -11  11   0    2.42    0.62
  11 -11   0    1.96    0.67
 -11   0   1    2.97    1.02
 -11  11   1    2.53    0.59
   0 -11   1    4.20    0.90
  11 -11   1    2.55    0.67
 -11   0  -1    3.24    1.05
 -11  11  -1    2.51    0.70
  11 -11  -1    2.08    0.67
 -11   0   2   -0.80    0.97
 -11  11   2    0.25    0.54
   0 -11   2   -0.12    0.82
  11 -11   2    0.23    0.86
   0  11  -2    0.16    0.49
 -11   0  -2    1.93    0.96
  11   0  -2    0.59    0.99
 -11  11  -2    1.10    0.69
   0  11  -2    1.10    0.92
 -11  11  -2    0.16    0.74
   0 -11  -2   -0.03    0.85
  11 -11  -2   -0.35    0.85
 -11   0  -2    0.02    0.24
  11 -11  -2   -0.21    0.66
   0 -11  -2    0.10    0.59
 -11  11   3   -0.40    0.58
 -11   0   3   -0.04    0.61
   0 -11   3   -0.07    0.88
  11 -11   3    1.16    0.69
 -11   0   3    0.50    0.60
   0  11  -3   -0.07    0.57
   0 -11  -3   -0.15    0.25
  11   0  -3    1.12    1.02
 -11   0  -3    1.19    1.06
  11 -11  -3    0.13    0.59
   0 -11  -3    0.04    0.93
  11 -11  -3    0.64    0.69
   0  11  -3   -0.14    0.96
 -11  11  -3    0.32    1.09
  11   0  -3    0.15    0.33
 -11   0  -3    1.03    0.48
  11 -11  -3    0.72    0.66
   0 -11  -3    1.22    1.01
 -11   0   4    1.06    1.04
   0 -11   4    0.68    0.58
  11 -11   4   -0.72    0.76
 -11   0   4    0.05    0.71
   0  11  -4    0.10    0.87
  11   0  -4    0.55    1.07
  11 -11  -4   -1.62    0.93
   0 -11  -4   -0.68    0.36
 -11   0  -4   -1.02    1.13
   0  11  -4    0.16    1.00
 -11  11  -4    0.20    0.86
  11   0  -4   -0.26    0.59
 -11   0  -4    0.51    0.70
  11 -11  -4    0.52    0.72
   0 -11  -4   -0.35    1.01
   0 -11   5   -1.26    1.03
  11 -11   5    0.49    0.85
 -11   0   5    0.85    0.68
  11   0   5   -0.42    0.95
   0  11  -5    1.97    1.17
  11   0  -5    0.17    1.11
  11 -11  -5    0.17    0.84
   0  11  -5    1.05    1.05
 -11  11  -5    0.62    0.94
  11   0  -5   -1.14    0.89
 -11   0  -5   -0.03    0.91
  11 -11  -5    0.22    1.10
   0 -11  -5   -0.90    0.64
   0 -11   6    1.44    1.15
  11 -11   6    2.11    1.03
 -11   0   6    1.92    0.90
  11   0   6    2.94    1.43
   0  11  -6    2.28    1.89
  11   0  -6    0.37    1.27
  11 -11  -6    2.42    1.07
 -11  11  -6    1.72    1.12
  11   0  -6    1.11    1.25
 -11   0  -6    0.38    1.18
  11 -11  -6    1.72    0.99
   0 -11  -6    1.51    1.23
   0 -11   7    1.85    1.21
  11 -11   7    0.46    1.09
 -11   0   7   -0.14    1.00
  11   0   7   -0.22    1.27
   0  11  -7    0.33    1.27
  11   0  -7    0.82    1.28
  11 -11  -7   -1.27    1.17
   0  11  -7    1.39    1.20
 -11  11  -7    1.87    1.18
  11   0  -7    2.12    1.05
 -11   0  -7    0.27    0.97
  11 -11  -7    0.46    1.01
   0 -11  -7   -0.50    1.24
   0 -11   8    0.21    1.32
  11 -11   8   -0.18    1.21
 -11   0   8    0.63    1.56
  11   0   8   -0.04    1.54
   0  11  -8    2.09    1.18
  11 -11  -8   -0.86    1.36
  11   0  -8    1.79    0.84
   0  11  -8    1.86    1.36
 -11  11  -8   -0.10    1.30
  11   0  -8   -0.18    1.23
 -11   0  -8    2.72    1.12
  11 -11  -8    0.12    1.12
   0 -11  -8    0.13    1.39
   0 -11   9   -1.34    1.37
  11 -11   9   -0.66    1.29
 -11   0   9    1.59    1.27
  11   0   9   -0.58    1.75
   0  11  -9   -0.13    1.12
  11   0  -9   -1.76    1.43
  11 -11  -9    2.36    1.51
   0  11  -9    1.04    0.84
 -11  11  -9   -0.79    1.37
  11   0  -9    0.07    1.36
 -11   0  -9   -0.93    1.68
  11 -11  -9    0.15    1.19
   0 -11  -9   -0.10    1.39
   0 -11  10    1.61    1.57
  11 -11  10    0.82    1.52
 -11   0  10    2.36    1.55
  11   0  10    0.34    2.06
  11   0 -10   -0.35    1.72
  11 -11 -10   -1.06    1.88
   0  11 -10    1.28    1.61
 -11  11 -10    3.07    1.64
  11   0 -10    2.75    1.74
 -11   0 -10    2.76    1.47
  11 -11 -10    0.99    1.41
   0 -11 -10    1.10    1.66
   0 -11  11    0.22    1.66
  11 -11  11    0.53    0.99
 -11   0  11   -2.09    2.21
  11   0  11   -3.37    2.15
 -11  11  11   -0.44    1.89
   0  11 -11    1.23    0.98
  11   0 -11   -2.13    1.80
  11 -11 -11   -1.59    2.01
   0  11 -11    0.92    1.65
 -11  11 -11    0.55    1.72
  11   0 -11   -1.07    1.97
 -11   0 -11   -0.37    1.55
  11 -11 -11    0.45    1.47
   0 -11 -11   -1.56    1.04
 -11  -1   0    3.30    1.02
 -12   1   0    0.96    0.67
 -11  12   0    0.58    0.55
 -12  11   0    1.08    0.70
  -1 -11   0    2.83    0.89
 -11  -1   1    8.28    1.24
 -11  12   1    7.31    0.86
 -12   1   1    9.52    1.29
 -12  11   1    7.94    0.82
   1 -12   1    8.68    1.18
  -1 -11   1    8.37    1.09
  12 -11   1    7.19    0.79
 -12   1  -1    8.32    1.34
 -11  -1  -1    7.25    0.78
 -12  11  -1    7.07    0.96
 -11  12  -1    5.73    0.77
   1 -12  -1   10.16    1.19
  -1 -11  -1    9.41    1.11
  12 -11  -1    7.62    0.76
  11 -12  -1    8.18    0.91
  12 -11  -1    7.67    0.76
 -11  12   2    1.96    0.74
 -12   1   2    2.08    1.12
 -12  11   2    2.04    0.68
 -11  -1   2    1.92    0.65
   1 -12   2    2.46    0.98
  -1 -11   2    1.20    0.89
  11 -12   2    1.66    0.77
  12 -11   2    2.03    0.68
 -11  -1   2    1.74    0.40
  -1 -11  -2    1.30    0.38
  -1  12  -2    0.65    0.45
 -11  -1  -2    1.51    1.08
   1  11  -2    1.58    0.61
 -12   1  -2    2.65    1.18
  12  -1  -2   -0.03    1.17
  11   1  -2    2.23    0.69
 -11  12  -2    1.06    0.72
 -12  11  -2    1.41    1.16
   1  11  -2    2.65    1.01
 -11  12  -2    2.88    0.89
   1 -12  -2    0.75    0.63
  12 -11  -2    1.51    0.65
  -1 -11  -2    3.78    0.98
  11 -12  -2    3.01    0.77
 -11  -1  -2    1.12    0.28
 -11  -1  -2    1.34    0.45
  12 -11  -2    1.76    0.67
  11 -12  -2    1.68    0.78
   1 -12  -2    1.34    0.70
  -1 -11  -2    1.78    1.05
 -12  11   3    2.92    0.76
 -12   1   3    2.98    1.23
 -11  -1   3    3.93    1.16
   1 -12   3    4.35    1.11
  -1 -11   3    3.00    1.03
  11 -12   3    3.49    0.88
  12 -11   3    2.87    0.80
 -11  -1   3    2.47    0.65
   1  11  -3    2.99    0.70
  12  -1  -3    2.70    1.24
 -11  -1  -3    4.45    1.21
  11   1  -3    3.00    1.22
 -12   1  -3    3.90    1.31
  12 -11  -3    2.92    0.78
  -1  12  -3    4.64    1.21
   1 -12  -3    4.70    1.13
  12 -11  -3    3.06    0.77
  -1 -11  -3    3.86    1.07
   1  11  -3    3.50    1.14
  11 -12  -3    2.85    0.89
 -12  11  -3    3.74    0.92
 -11  12  -3    4.34    1.03
 -11  -1  -3    2.39    0.68
  12 -11  -3    3.74    0.76
  11 -12  -3    2.89    0.87
  -1 -11  -3    4.74    1.19
   1 -12  -3    3.16    1.23
 -12   1   4    1.06    0.72
 -11  -1   4   -0.17    1.09
   1 -12   4    1.76    1.06
  -1 -11   4    0.64    1.01
  11 -12   4    0.68    0.88
  12 -11   4    1.91    0.81
 -11  -1   4    1.75    0.82
 -12   1   4    2.15    0.65
  -1  12  -4    0.49    0.94
   1  11  -4    1.42    1.21
  12  -1  -4    0.40    1.18
  11   1  -4    2.85    1.19
  12 -11  -4    1.54    0.82
  -1 -11  -4    0.70    0.44
 -11  -1  -4    2.98    1.26
  11 -12  -4    1.25    0.66
 -12   1  -4    1.73    1.28
  -1  12  -4    1.79    1.17
 -12  11  -4    1.64    1.25
   1  11  -4   -0.04    1.08
 -11  12  -4    0.68    1.01
  11   1  -4    1.38    0.66
  12  -1  -4    0.36    0.55
 -12   1  -4    1.29    0.64
 -11  -1  -4    0.83    0.63
  12 -11  -4    1.14    0.76
  11 -12  -4    0.43    0.86
   1 -12  -4    1.15    1.16
  -1 -11  -4    2.06    1.08
   1 -12   5    9.44    0.90
  -1 -11   5    9.24    1.35
  11 -12   5    9.28    1.19
  12 -11   5    6.74    1.15
 -11  -1   5    7.71    1.28
 -12   1   5    6.05    0.92
  12  -1   5    4.76    0.93
  -1  12  -5    8.09    1.71
   1  11  -5    7.52    2.13
  11   1  -5    8.18    0.99
  12  -1  -5    7.64    1.53
  12 -11  -5    8.70    1.25
  11 -12  -5    8.03    1.04
  -1  12  -5    9.39    1.50
   1  11  -5    9.67    1.46
 -12  11  -5    7.85    1.31
 -11  12  -5    9.34    1.38
  11   1  -5    7.01    0.94
  12  -1  -5    6.28    1.20
 -12   1  -5    4.41    1.14
 -11  -1  -5    5.63    1.30
  12 -11  -5    7.32    1.09
  11 -12  -5    7.35    1.12
   1 -12  -5    8.19    1.52
  -1 -11  -5    8.94    1.44
   1 -12   6    1.35    1.14
  -1 -11   6   -0.33    1.13
  11 -12   6    0.46    0.99
  12 -11   6    0.24    0.97
 -11  -1   6    0.04    0.88
 -12   1   6    0.51    0.82
  12  -1   6   -0.53    1.02
  11   1   6    1.04    0.98
  -1  12  -6    2.52    1.37
   1  11  -6   -0.91    1.49
  11   1  -6    0.14    1.24
  12  -1  -6   -1.99    1.24
  12 -11  -6   -0.86    1.08
  11 -12  -6   -0.80    1.31
  -1  12  -6    2.84    1.23
   1  11  -6    1.48    1.18
 -12  11  -6    2.56    1.45
 -11  12  -6   -0.97    1.13
  11   1  -6    0.47    0.92
  12  -1  -6    1.92    0.89
 -12   1  -6    0.43    1.05
 -11  -1  -6   -0.73    1.17
  12 -11  -6    0.15    0.92
  11 -12  -6    0.03    0.96
   1 -12  -6    1.25    1.22
  -1 -11  -6   -0.08    1.13
   1 -12   7    3.25    1.44
  -1 -11   7    4.00    1.38
  11 -12   7    2.83    1.25
  12 -11   7    5.41    1.24
 -11  -1   7    2.92    1.15
 -12   1   7    1.08    1.17
  12  -1   7   -0.84    2.05
  11   1   7    3.34    1.49
  -1  12  -7    3.29    1.48
   1  11  -7    4.63    1.81
  11   1  -7    4.04    1.51
  12  -1  -7    5.06    0.93
  12 -11  -7    4.06    1.44
  11 -12  -7    4.67    1.35
  -1  12  -7    6.50    1.47
   1  11  -7    4.47    1.44
 -11  12  -7    2.75    1.42
 -12  11  -7    3.74    1.40
  11   1  -7    4.33    1.32
  12  -1  -7    3.29    1.69
 -12   1  -7    1.63    1.48
 -11  -1  -7    3.82    1.15
  12 -11  -7    1.37    1.18
  11 -12  -7    2.41    1.22
   1 -12  -7    4.19    0.93
  -1 -11  -7    5.06    1.43
   1 -12   8   -1.95    1.34
  -1 -11   8    1.47    1.33
  11 -12   8   -0.50    1.23
  12 -11   8    2.05    1.23
 -11  -1   8    0.20    1.17
 -12   1   8    1.60    1.22
  12  -1   8   -0.81    1.63
  11   1   8   -0.10    2.23
   1  11  -8    0.84    1.49
  11   1  -8    0.66    1.42
  11 -12  -8    2.65    1.37
  12  -1  -8   -0.93    1.44
  12 -11  -8    0.24    1.46
  -1  12  -8    2.12    1.42
   1  11  -8    1.12    1.37
 -12  11  -8    2.33    1.33
 -11  12  -8    1.54    1.36
  11   1  -8    2.47    1.77
  12  -1  -8   -0.31    1.27
 -12   1  -8    0.30    1.51
 -11  -1  -8    0.31    1.53
  12 -11  -8    2.08    1.14
  11 -12  -8    0.92    1.17
   1 -12  -8    0.08    0.89
  -1 -11  -8   -0.31    1.37
   1 -12   9    1.57    1.52
  -1 -11   9    1.82    1.50
  11 -12   9    1.62    1.44
  12 -11   9    3.36    1.42
 -11  -1   9    3.50    1.41
 -12   1   9    1.06    1.45
  12  -1   9   -0.11    2.12
  11   1   9    2.01    2.14
   1  11  -9    1.32    1.46
  12  -1  -9    0.73    1.61
  12 -11  -9    1.27    1.71
  11   1  -9    1.45    1.59
  11 -12  -9    0.98    1.67
  -1  12  -9    0.51    1.57
   1  11  -9    1.66    1.54
 -11  12  -9    0.47    1.58
 -12  11  -9    1.14    1.57
  11   1  -9    2.83    1.56
  12  -1  -9    1.67    1.61
 -12   1  -9    1.64    1.36
 -11  -1  -9    1.69    1.36
  12 -11  -9    1.92    1.28
  11 -12  -9    2.39    1.36
   1 -12  -9    3.39    1.62
  -1 -11  -9    2.38    1.55
   1 -12  10    1.09    1.60
  -1 -11  10    0.72    1.55
  11 -12  10   -0.34    1.51
  12 -11  10   -0.64    1.52
 -11  -1  10   -0.55    2.03
 -12   1  10    2.97    1.51
  12  -1  10    2.57    2.13
  11   1  10    2.78    2.28
   1  11 -10   -0.63    1.41
  11 -12 -10    3.77    1.81
  12  -1 -10    2.17    1.69
  12 -11 -10   -0.19    1.85
  11   1 -10   -0.52    1.67
  -1  12 -10   -0.21    1.64
   1  11 -10    0.35    0.98
 -12  11 -10   -0.03    1.64
 -11  12 -10   -1.45    1.65
  11   1 -10    0.49    1.71
  12  -1 -10    0.70    1.79
 -12   1 -10    0.48    1.44
 -11  -1 -10    1.43    1.42
  12 -11 -10    1.22    1.34
  11 -12 -10   -0.53    1.38
   1 -12 -10    0.41    1.65
  -1 -11 -10    1.99    1.58
   1 -12  11    3.34    1.82
  -1 -11  11    1.75    1.79
  11 -12  11    0.55    1.70
  12 -11  11    1.34    1.73
 -11  -1  11    1.40    1.76
 -12   1  11    1.12    1.79
  12  -1  11    1.33    2.41
  11   1  11   -1.28    2.55
   1  11 -11    1.20    1.71
  11   1 -11   -0.93    1.87
  11 -12 -11    1.81    2.20
  12  -1 -11   -0.14    1.95
  12 -11 -11    1.73    2.22
  -1  12 -11   -0.94    1.82
   1  11 -11    1.73    1.80
 -12  11 -11    3.40    1.87
 -11  12 -11    1.90    1.89
  11   1 -11   -0.66    2.11
  12  -1 -11    0.67    2.27
 -12   1 -11   -0.07    1.72
 -11  -1 -11    0.19    1.68
  12 -11 -11    0.86    1.55
  11 -12 -11    1.54    1.54
   1 -12 -11    3.09    1.89
  -1 -11 -11    1.76    1.14
 -11  -2   0    2.77    0.98
 -13  11   0    0.59    0.76
 -13   2   0   -0.22    0.70
 -11  13   0    0.44    0.46
  11 -13   0    0.32    0.77
  13 -11   0    0.29    0.53
 -11  -2   0    0.21    0.39
 -11  -2   0    0.12    0.34
 -11  13   1    6.72    0.60
 -11  -2   1    7.56    0.78
 -13   2   1    6.28    1.39
 -13  11   1    6.65    0.92
  -2 -11   1    6.93    1.05
  11 -13   1    7.40    0.96
  13 -11   1    6.40    0.73
 -11  -2   1    8.02    0.60
 -11  -2   1    5.93    0.40
 -11  -2  -1    7.47    1.23
 -13   2  -1    6.86    1.44
 -13  11  -1    7.24    1.42
 -11  13  -1    4.97    0.90
  -2 -11  -1    8.15    1.07
  11 -13  -1    6.65    1.00
  13 -11  -1    5.43    0.68
 -11  -2  -1    7.04    0.56
 -11  -2  -1    8.20    0.57
  13 -11  -1    6.90    0.72
 -11  13   2    3.32    0.69
 -13  11   2    2.49    0.80
 -11  -2   2    3.10    1.11
 -13   2   2    1.94    1.23
   2 -13   2    2.75    1.08
  -2 -11   2    2.56    0.97
  11 -13   2    2.44    0.89
  13 -11   2    2.86    0.67
 -11  -2   2    2.60    0.57
  -2 -11  -2    2.26    0.49
 -13   2  -2    0.83    1.29
 -11  -2  -2    2.23    1.18
   2  11  -2    1.30    0.72
 -13  11  -2    2.73    0.98
  11   2  -2    1.96    1.22
 -11  13  -2    1.90    0.95
  13  -2  -2    3.51    1.25
  -2  13  -2    2.13    0.75
  -2 -11  -2    2.46    1.00
  13 -11  -2    2.01    0.82
  11 -13  -2    2.60    0.89
 -11  -2  -2    3.18    0.60
  13 -11  -2    1.91    0.86
  -2 -11  -2    3.88    1.13
  11 -13  -2    3.41    0.93
 -13   2   3    3.43    1.29
 -13  11   3    3.42    0.85
 -11  -2   3    3.10    1.20
   2 -13   3    3.06    1.19
  -2 -11   3    4.35    1.01
  11 -13   3    3.37    0.96
  13 -11   3    3.56    1.04
 -11  -2   3    3.37    0.60
  -2  13  -3    3.62    0.75
  -2 -11  -3    2.84    0.51
   2  11  -3    2.60    0.99
 -13   2  -3    5.31    1.41
 -11  -2  -3    2.99    1.25
  11   2  -3    5.19    1.27
  13  -2  -3    5.28    1.29
 -13  11  -3    3.28    1.14
  -2 -11  -3    4.94    1.08
   2  11  -3    5.09    1.15
  -2  13  -3    5.93    1.30
   2 -13  -3    3.43    1.23
 -13  11  -3    3.56    0.92
  13 -11  -3    4.00    0.71
 -11  13  -3    5.93    1.13
  11 -13  -3    3.89    1.02
 -11  -2  -3    3.29    0.76
  13 -11  -3    3.73    0.73
  -2 -11  -3    4.11    1.21
  11 -13  -3    3.36    0.98
   2 -13  -3    4.22    1.33
 -11  -2   4    2.52    1.08
 -13   2   4    1.20    1.22
  -2 -11   4    1.56    0.98
   2 -13   4    0.72    1.10
  11 -13   4   -0.03    0.92
  13 -11   4   -0.01    0.78
 -11  -2   4    0.71    0.87
 -13   2   4    0.75    0.55
  -2  13  -4    0.07    1.32
   2  11  -4    1.16    0.90
  -2 -11  -4    0.22    0.50
  11   2  -4    1.33    1.20
  13  -2  -4    0.35    1.21
 -11  -2  -4   -0.13    1.23
 -13   2  -4    1.52    1.36
  13 -11  -4    0.61    0.92
  11 -13  -4    0.61    0.52
  -2 -11  -4    1.49    1.05
   2 -13  -4    0.29    1.12
  11 -13  -4    1.59    0.97
   2  11  -4   -0.18    1.10
  -2  13  -4    1.82    0.74
 -11  13  -4    0.13    1.08
 -13  11  -4    0.28    0.89
  11   2  -4    0.65    0.66
  13  -2  -4    0.70    0.45
 -13   2  -4    0.52    0.52
 -11  -2  -4    0.83    0.86
  13 -11  -4    1.21    0.98
  11 -13  -4    0.45    0.91
  -2 -11  -4    0.46    1.06
   2 -13  -4    0.16    1.25
 -13   2   5    7.33    0.91
   2 -13   5    6.13    1.44
  -2 -11   5    7.06    1.29
  11 -13   5    6.07    1.17
  13 -11   5    6.08    1.08
 -11  -2   5    4.05    1.26
 -13   2   5    5.53    1.02
  13  -2   5    5.76    1.12
  -2  13  -5    3.92    2.19
   2  11  -5    4.29    1.98
  11   2  -5    3.47    1.49
  13  -2  -5    6.17    1.46
  13 -11  -5    5.80    1.26
  11 -13  -5    4.40    1.07
  -2 -11  -5    4.07    0.80
 -11  -2  -5    6.39    1.64
  -2  13  -5    6.67    1.48
 -11  13  -5    6.02    1.38
 -13  11  -5    6.44    1.22
  11   2  -5    4.69    1.15
  13  -2  -5    6.37    0.85
 -13   2  -5    4.31    1.01
 -11  -2  -5    4.90    0.97
  13 -11  -5    4.01    1.00
  11 -13  -5    6.13    1.12
  -2 -11  -5    7.41    1.33
   2 -13  -5    7.75    1.48
   2 -13   6   -1.63    1.30
  -2 -11   6    1.54    1.17
  11 -13   6    0.91    1.08
  13 -11   6    2.91    1.01
 -11  -2   6    1.19    0.94
 -13   2   6    1.85    1.13
  13  -2   6    1.62    1.37
  -2  13  -6    1.13    1.52
   2  11  -6    1.87    1.64
  13  -2  -6    0.24    1.35
  11   2  -6    3.62    1.36
  13 -11  -6    2.28    1.20
  11 -13  -6    0.28    0.87
   2  11  -6    0.12    1.30
  -2  13  -6    1.05    1.37
 -11  13  -6    0.97    1.27
 -13  11  -6    0.98    1.14
  11   2  -6    0.98    0.98
  13  -2  -6    1.00    1.31
 -13   2  -6    1.05    0.81
 -11  -2  -6    0.74    1.28
  13 -11  -6    1.48    0.96
  11 -13  -6    1.08    1.06
  -2 -11  -6    2.38    1.19
   2 -13  -6   -0.45    1.33
   2 -13   7   -0.57    0.82
  -2 -11   7    2.49    1.24
  11 -13   7    0.60    1.15
  13 -11   7    1.11    1.14
 -11  -2   7    2.18    1.42
 -13   2   7   -0.60    1.35
  13  -2   7    0.59    1.36
  11   2   7    0.13    1.28
   2  11  -7    0.69    1.85
  11   2  -7    0.56    0.87
  13  -2  -7    1.47    1.36
  13 -11  -7    2.24    1.31
  11 -13  -7    1.77    1.13
   2  11  -7    1.94    1.33
  -2  13  -7    0.94    1.38
 -13  11  -7   -1.01    1.22
 -11  13  -7   -0.21    1.33
  11   2  -7   -0.27    1.21
  13  -2  -7    1.83    1.15
 -13   2  -7   -0.30    0.96
 -11  -2  -7    0.53    1.07
  13 -11  -7    0.74    1.03
  -2 -11  -7    1.21    1.27
  11 -13  -7    0.92    1.13
   2 -13  -7    1.02    1.37
   2 -13   8    1.47    0.87
  -2 -11   8   -0.08    1.37
  11 -13   8   -0.35    1.26
  13 -11   8    0.75    1.27
 -11  -2   8    1.49    1.20
 -13   2   8    1.66    1.18
  13  -2   8    2.09    1.75
  11   2   8    1.65    1.69
   2  11  -8    3.02    1.77
  13 -11  -8   -0.42    1.51
  13  -2  -8    0.76    1.47
  11   2  -8   -1.82    1.50
  11 -13  -8    1.20    1.86
   2  11  -8    0.64    1.44
  -2  13  -8   -0.19    1.48
 -11  13  -8    0.07    1.43
 -13  11  -8    0.12    1.37
  11   2  -8    0.53    1.98
  13  -2  -8    1.42    1.32
 -13   2  -8    0.10    1.14
 -11  -2  -8    0.75    1.19
  13 -11  -8    0.13    1.16
  -2 -11  -8    1.13    1.39
  11 -13  -8    0.74    1.23
   2 -13  -8    1.73    1.51
   2 -13   9   -0.52    1.52
  -2 -11   9    1.00    1.42
  11 -13   9    0.86    1.34
  13 -11   9    0.56    1.36
 -11  -2   9    2.60    1.78
 -13   2   9   -0.91    1.35
  13  -2   9    0.68    2.76
  11   2   9    1.14    2.06
   2  11  -9    1.40    1.60
  11   2  -9   -2.23    1.54
  11 -13  -9    2.29    1.57
  13  -2  -9   -0.30    1.56
  13 -11  -9    2.87    1.69
   2  11  -9   -0.17    1.47
  -2  13  -9   -0.90    1.56
 -11  13  -9    0.83    1.53
 -13  11  -9   -0.26    1.48
  11   2  -9    0.59    1.64
  13  -2  -9    1.06    2.07
 -13   2  -9   -0.38    1.29
 -11  -2  -9   -0.40    1.28
  13 -11  -9   -0.56    1.22
  11 -13  -9    0.65    1.29
  -2 -11  -9    0.16    1.46
   2 -13  -9    1.00    1.62
   2 -13  10    0.02    1.68
  -2 -11  10    0.76    1.57
  11 -13  10    1.56    1.52
  13 -11  10   -0.17    1.54
 -11  -2  10   -0.08    1.51
 -13   2  10   -0.60    1.57
  13  -2  10    1.54    3.05
  11   2  10    2.62    2.44
   2  11 -10    0.91    1.51
  13  -2 -10    2.28    1.71
  13 -11 -10   -0.36    1.88
  11   2 -10    0.70    1.66
  11 -13 -10    1.05    1.91
  -2  13 -10    2.49    1.66
   2  11 -10   -1.13    1.64
 -11  13 -10    0.41    1.07
 -13  11 -10    0.71    1.69
  11   2 -10    0.53    1.79
  13  -2 -10    0.21    1.96
 -13   2 -10    1.53    1.47
 -11  -2 -10    0.45    1.44
  13 -11 -10   -0.81    1.39
  11 -13 -10   -0.34    1.44
  -2 -11 -10    1.01    1.58
   2 -13 -10   -0.05    1.71
  -2 -11  11    0.19    1.83
   2 -13  11    1.78    1.88
  11 -13  11    1.14    1.12
  13 -11  11    0.97    1.77
 -11  -2  11    2.42    1.81
 -13   2  11   -0.43    1.91
  13  -2  11    3.27    2.57
  11   2  11    5.32    3.00
   2  11 -11    1.84    1.72
  13  -2 -11    1.05    2.01
  13 -11 -11    2.19    2.33
  11   2 -11    0.20    1.95
  11 -13 -11   -0.08    2.31
   2  11 -11    1.21    1.88
  -2  13 -11    2.44    1.91
 -11  13 -11   -0.18    1.97
 -13  11 -11    1.72    1.95
  11   2 -11    0.73    2.20
  13  -2 -11    3.14    2.46
 -13   2 -11    2.88    1.75
 -11  -2 -11    3.31    1.70
  13 -11 -11    1.71    1.59
  11 -13 -11    3.29    1.62
  -2 -11 -11    2.60    1.86
   2 -13 -11    2.44    2.00
 -11  -3   0    6.58    1.21
 -11  14   0    4.37    0.68
 -14   3   0    6.58    0.91
 -14  11   0    7.36    1.06
  -3 -11   0    6.94    1.04
   3 -14   0    7.64    1.30
  14 -11   0    6.15    0.66
 -11  -3   0    6.89    0.61
 -11  -3   0    5.57    0.56
 -11  14   1    0.97    0.40
 -11  -3   1   -0.01    1.00
 -14   3   1    1.12    1.21
 -14  11   1    0.79    0.83
   3 -14   1    0.81    0.66
  -3 -11   1    2.02    0.85
  11 -14   1    2.05    0.89
  14 -11   1    0.88    0.56
 -11  -3   1    0.70    0.50
 -11  -3   1    0.18    0.37
  -3 -11  -1    0.88    0.58
 -11  -3  -1    1.85    1.04
 -14   3  -1   -0.48    0.77
 -11  14  -1    0.25    0.46
 -14  11  -1    1.12    0.98
  14 -11  -1    0.42    0.49
 -11  -3  -1    0.26    0.44
 -11  -3  -1    1.38    0.59
 -11  -3   2    7.31    1.29
 -14  11   2    6.97    1.03
 -14   3   2    7.16    1.47
   3 -14   2    7.27    1.32
  -3 -11   2    7.30    0.70
  11 -14   2    8.05    1.14
  14 -11   2    6.41    0.80
 -11  -3   2    7.53    0.81
  -3 -11  -2    6.00    0.67
 -11  -3  -2    8.67    1.30
 -14   3  -2   10.30    1.59
 -14  11  -2    6.79    1.26
  11   3  -2    8.18    1.41
  14  -3  -2    7.46    0.93
  -3 -11  -2    9.54    1.13
  11 -14  -2    7.16    1.14
 -11  -3  -2    6.89    0.64
  14 -11  -2    6.11    0.96
  -3 -11  -2    9.75    1.27
  11 -14  -2    8.02    1.19
   3 -14  -2    9.02    0.97
 -11  -3   3    1.77    1.09
 -14   3   3   -0.48    1.23
 -14  11   3    0.76    0.80
   3 -14   3    1.09    1.12
  -3 -11   3    1.29    0.90
  11 -14   3    0.66    0.92
  14 -11   3    0.47    0.69
 -11  -3   3    0.16    0.75
  -3  14  -3    0.10    0.56
  -3 -11  -3    0.27    0.38
   3  11  -3    0.27    0.70
 -11  -3  -3    0.53    1.13
 -14   3  -3   -1.06    1.34
  11   3  -3    0.78    1.15
  14  -3  -3    1.25    0.76
 -14  11  -3    0.31    1.13
   3  11  -3    0.96    1.06
 -14  11  -3    0.90    0.72
 -11  14  -3    0.05    1.08
  -3  14  -3    0.34    1.22
  -3 -11  -3    0.71    0.95
  14 -11  -3    0.43    0.74
 -11  -3  -3    0.02    0.49
  11 -14  -3    1.55    0.98
   3 -14  -3    1.11    1.14
 -11  -3  -3    1.28    0.76
  14 -11  -3    0.79    0.62
  -3 -11  -3    0.43    1.06
  11 -14  -3   -0.42    0.97
   3 -14  -3   -0.51    1.28
 -14  11   4    2.75    0.93
 -11  -3   4    4.50    1.22
 -14   3   4    3.54    1.39
   3 -14   4    2.94    1.26
  -3 -11   4    2.88    1.12
  11 -14   4    3.17    1.08
  14 -11   4    1.96    0.89
 -11  -3   4    1.61    1.03
  -3  14  -4    3.39    1.29
   3  11  -4    1.84    1.05
  -3 -11  -4    1.97    0.49
  11   3  -4    3.47    1.37
  14  -3  -4    4.80    1.35
 -11  -3  -4    3.42    1.34
 -14   3  -4    3.68    1.01
  14 -11  -4    3.15    1.12
  -3 -11  -4    3.20    1.17
  14 -11  -4    2.26    0.74
  11 -14  -4    3.72    1.18
   3 -14  -4    5.41    1.30
   3  11  -4    4.40    1.22
 -14  11  -4    4.03    1.30
  11   3  -4    1.63    0.78
 -11  14  -4    4.18    1.27
  -3  14  -4    5.12    1.42
 -11  -3  -4    2.70    1.02
  14 -11  -4    1.93    0.81
  -3 -11  -4    3.49    1.16
  11 -14  -4    3.98    1.06
   3 -14  -4    4.19    1.50
 -14   3   5   -0.04    1.22
   3 -14   5   -0.33    1.23
  -3 -11   5    0.97    1.04
  11 -14   5    0.65    1.01
  14 -11   5   -1.00    0.89
 -11  -3   5    2.36    1.07
  14  -3   5    0.91    0.81
 -14   3   5   -0.17    0.73
  -3  14  -5   -1.08    1.81
   3  11  -5   -0.01    1.21
  14  -3  -5    1.29    1.25
  11   3  -5   -0.44    1.30
  14 -11  -5   -0.24    1.08
 -11  -3  -5   -1.06    1.35
  11 -14  -5    0.01    0.21
 -14   3  -5    1.17    1.46
  -3  14  -5    2.10    1.27
   3  11  -5   -0.78    1.15
 -14  11  -5   -0.17    0.97
 -11  14  -5    0.49    1.19
  11   3  -5   -0.12    0.96
 -14   3  -5   -0.05    0.72
  14  -3  -5    0.47    0.80
 -11  -3  -5   -0.13    0.80
  14 -11  -5   -0.62    1.08
  -3 -11  -5    0.45    1.06
  11 -14  -5    0.57    0.99
   3 -14  -5    0.79    1.28
   3 -14   6    5.35    1.44
  -3 -11   6    3.23    1.29
  11 -14   6    3.46    0.77
  14 -11   6    4.00    1.16
 -11  -3   6    2.23    1.05
  14  -3   6    2.26    1.45
 -14   3   6    2.14    1.15
   3  11  -6    2.62    1.81
  11   3  -6    5.22    1.55
  14  -3  -6    3.29    1.46
  14 -11  -6    2.95    1.41
  11 -14  -6    2.03    0.78
  -3 -11  -6    1.13    0.74
 -11  -3  -6    4.83    1.06
   3  11  -6    4.01    1.42
 -11  14  -6    6.29    1.45
  -3  14  -6    4.60    1.56
 -14  11  -6    3.69    1.27
  11   3  -6    0.62    1.47
 -14   3  -6    2.74    0.86
  14  -3  -6    2.39    1.46
 -11  -3  -6    2.14    1.09
  14 -11  -6    1.44    1.38
  -3 -11  -6    3.85    1.30
  11 -14  -6    4.27    1.21
   3 -14  -6    5.74    1.51
   3 -14   7   -0.79    1.41
  -3 -11   7   -1.17    1.25
  11 -14   7    0.17    0.75
  14 -11   7    0.76    1.18
 -11  -3   7    0.42    1.08
  14  -3   7   -0.89    1.45
 -14   3   7    1.03    1.03
   3 -14  -7    0.81    0.60
   3  11  -7   -1.27    1.93
  11   3  -7    0.58    1.47
  14  -3  -7    1.11    1.39
  11 -14  -7    1.01    0.89
  14 -11  -7   -0.66    1.41
   3  11  -7    2.12    1.38
 -11  14  -7    1.25    1.40
  -3  14  -7    1.29    1.43
 -14  11  -7    1.55    1.25
  11   3  -7    1.10    1.71
 -14   3  -7   -0.37    1.29
  14  -3  -7    0.99    1.27
 -11  -3  -7    1.56    1.46
  14 -11  -7    1.71    1.40
  -3 -11  -7    0.79    1.26
  11 -14  -7    1.74    1.18
   3 -14  -7    1.86    1.47
   3 -14   8    1.97    1.44
  -3 -11   8    0.19    1.29
  11 -14   8    0.03    0.79
  14 -11   8    1.13    1.27
 -11  -3   8    0.19    1.18
  14  -3   8    0.02    2.40
 -14   3   8   -0.72    1.55
   3  11  -8    0.60    1.98
  11   3  -8    2.15    1.49
  11 -14  -8   -0.81    1.10
  14  -3  -8   -1.00    1.45
  14 -11  -8    0.22    1.53
  -3  14  -8   -1.00    1.51
   3  11  -8    0.14    1.41
 -11  14  -8   -0.32    1.45
 -14  11  -8   -1.35    1.35
  11   3  -8    1.73    1.49
 -14   3  -8    1.36    1.09
  14  -3  -8   -0.37    1.75
 -11  -3  -8    1.91    1.17
  14 -11  -8   -1.93    1.09
  -3 -11  -8   -0.33    1.31
  11 -14  -8   -0.13    1.22
   3 -14  -8    0.27    1.50
   3 -14  -8    0.47    1.45
   3 -14   9    0.34    1.57
  -3 -11   9    0.68    1.41
  11 -14   9   -0.24    1.40
  14 -11   9    2.69    1.45
 -11  -3   9    1.64    1.38
  14  -3   9   -0.32    2.18
 -14   3   9   -1.35    1.88
  11   3   9   -1.43    2.05
   3  11  -9    0.03    1.89
  11   3  -9   -0.55    1.57
  14 -11  -9   -0.67    1.74
  14  -3  -9    2.00    1.64
  11 -14  -9    0.69    1.59
   3  11  -9   -0.28    0.95
 -11  14  -9    0.98    1.61
  -3  14  -9    0.63    1.59
 -14  11  -9    1.46    1.51
  11   3  -9   -2.22    1.75
  14  -3  -9   -0.43    1.62
 -14   3  -9   -0.37    1.30
 -11  -3  -9    1.44    1.32
  14 -11  -9   -0.48    1.26
  -3 -11  -9    1.34    1.39
  11 -14  -9   -0.54    1.35
   3 -14  -9   -0.63    1.60
   3 -14  10    0.31    1.72
  -3 -11  10    1.01    1.67
  11 -14  10    0.06    1.63
  14 -11  10    1.58    1.64
 -11  -3  10    0.40    1.59
  14  -3  10   -1.38    2.49
 -14   3  10    1.29    1.69
  11   3  10    7.47    2.71
   3  11 -10   -0.43    1.79
  11   3 -10    0.37    1.77
  11 -14 -10    0.71    1.96
  14  -3 -10   -1.81    1.88
  14 -11 -10    1.40    2.06
   3  11 -10   -1.56    1.76
 -11  14 -10    2.64    1.82
  -3  14 -10    0.09    1.12
 -14  11 -10    1.36    1.77
  11   3 -10    1.23    2.09
  14  -3 -10    1.98    2.18
 -14   3 -10    0.44    1.56
 -11  -3 -10    3.54    1.50
  14 -11 -10   -0.39    1.47
  -3 -11 -10    2.77    1.67
  11 -14 -10    1.68    1.50
   3 -14 -10    2.97    1.84
 -11  -4   0    5.45    1.12
 -11  15   0    2.73    0.55
 -15  11   0    5.03    1.11
   4 -15   0    3.64    0.82
  -4 -11   0    6.31    0.98
  15 -11   0    4.02    0.56
 -11  -4   0    4.26    0.65
 -11  15   1    0.33    0.46
 -11  -4   1   -0.63    1.02
 -15  11   1   -0.15    0.89
  -4 -11   1   -0.10    0.84
  11 -15   1    3.19    0.94
  15 -11   1    0.36    0.54
 -11  -4   1    1.03    0.45
  -4 -11  -1    0.18    0.45
 -11  -4  -1    1.63    1.01
 -15  11  -1    1.02    0.99
 -11  15  -1    0.30    0.39
  -4 -11  -1    1.72    0.85
   4 -15  -1    1.21    0.68
  15 -11  -1    0.16    0.44
 -11  -4  -1    0.10    0.50
 -11  -4  -1   -0.01    0.44
 -11  -4   2    1.89    1.09
 -15  11   2    1.22    0.92
 -15   4   2    1.39    1.28
  -4 -11   2    2.23    0.92
  11 -15   2    1.42    0.63
  15 -11   2    1.73    0.64
 -11  -4   2    1.21    0.53
  -4 -11  -2    1.39    0.46
 -11  -4  -2    2.56    1.07
 -15   4  -2    2.16    1.44
 -15  11  -2    1.69    1.12
 -11  15  -2    1.74    0.66
   4  11  -2    1.66    0.63
  11   4  -2   -0.04    1.17
  -4 -11  -2    2.23    0.92
   4 -15  -2    1.77    0.78
  15 -11  -2    0.99    0.46
 -11  -4  -2    1.10    0.52
 -11  -4  -2    1.92    0.76
  15 -11  -2    1.09    0.75
  -4 -11  -2    2.00    1.01
  11 -15  -2    2.53    1.09
   4 -15  -2    1.71    0.85
 -11  -4   3    3.21    1.07
 -15   4   3   -0.65    1.22
 -15  11   3    0.27    0.88
   4 -15   3   -0.48    1.19
  11 -15   3   -0.62    0.99
  -4 -11   3    0.11    0.89
  15 -11   3    0.42    0.95
 -11  -4   3    1.25    0.82
  -4  15  -3   -0.08    0.44
  -4 -11  -3    0.89    0.58
 -11  -4  -3    0.95    1.09
   4  11  -3    0.49    0.72
 -15   4  -3   -1.60    1.42
  15  -4  -3   -1.22    1.27
 -15  11  -3   -0.80    1.19
  11   4  -3    0.61    1.20
   4  11  -3   -0.21    1.02
  -4  15  -3    2.27    1.27
 -11  15  -3    1.48    1.15
  -4 -11  -3    0.91    0.93
   4 -15  -3    0.93    0.72
  11 -15  -3    1.20    1.03
  15 -11  -3   -0.25    0.65
 -11  -4  -3    0.17    0.54
 -11  -4  -3    0.78    0.82
  15 -11  -3    0.58    0.61
  -4 -11  -3    1.24    1.00
  11 -15  -3    0.53    1.04
   4 -15  -3   -0.04    1.37
 -15  11   4    0.93    0.92
 -15   4   4    2.12    1.34
   4 -15   4    0.61    1.23
  11 -15   4    1.08    1.07
  -4 -11   4    1.90    0.99
  15 -11   4    0.27    1.15
 -11  -4   4    1.40    0.99
  -4  15  -4    0.23    1.10
   4  11  -4    0.81    0.98
 -11  -4  -4    0.95    1.24
  11   4  -4    0.49    1.31
 -15   4  -4    1.51    1.55
  15  -4  -4    1.16    1.33
 -15  11  -4   -0.32    1.34
  15 -11  -4   -0.25    1.09
  -4 -11  -4    2.87    1.06
   4  11  -4    1.52    1.15
  -4  15  -4    2.03    1.38
  15 -11  -4    0.76    0.80
   4 -15  -4    0.89    1.32
 -15  11  -4    2.27    0.85
 -11  -4  -4    0.61    0.69
  11   4  -4    0.89    0.77
 -11  15  -4    2.11    1.25
  11 -15  -4    2.61    1.17
 -11  -4  -4    0.71    1.00
  15 -11  -4    0.41    0.74
  -4 -11  -4    1.92    1.07
  11 -15  -4    1.03    1.09
   4 -15  -4    0.93    1.48
 -15   4   5    3.76    1.47
   4 -15   5    4.09    1.46
  -4 -11   5    3.77    1.23
  11 -15   5    3.55    1.24
  15 -11   5    3.12    1.07
 -11  -4   5    4.16    1.30
  15  -4   5    1.91    0.83
  -4  15  -5    3.09    1.55
   4  11  -5    3.30    1.45
  11   4  -5    3.52    1.61
  -4 -11  -5    1.72    0.65
  15  -4  -5    1.24    1.47
  15 -11  -5    4.80    1.35
 -15   4  -5    3.18    1.85
 -11  -4  -5    5.64    1.52
  -4 -11  -5    4.26    1.28
   4 -15  -5    4.29    1.43
  11 -15  -5    5.01    1.34
   4  11  -5    5.92    1.34
  -4  15  -5    5.27    0.97
 -11  15  -5    4.53    1.44
 -15  11  -5    2.92    1.12
  11   4  -5    2.75    1.14
 -15   4  -5    1.41    0.76
  15  -4  -5    2.15    0.84
 -11  -4  -5    2.52    1.26
  15 -11  -5    2.19    1.26
  -4 -11  -5    3.77    1.20
  11 -15  -5    3.15    1.25
   4 -15  -5    2.99    1.57
   4 -15   6    2.35    1.40
  -4 -11   6    1.35    1.17
  11 -15   6    0.64    1.21
  15 -11   6    0.50    1.13
 -11  -4   6    3.64    1.37
  15  -4   6    1.47    1.27
 -15   4   6    0.52    0.91
   4  11  -6    0.57    1.65
  11   4  -6    2.24    1.52
  15  -4  -6    0.89    1.38
  15 -11  -6    2.05    1.35
  11 -15  -6    0.61    0.54
 -11  -4  -6    1.10    1.58
   4  11  -6    0.92    1.33
  -4  15  -6    2.18    1.49
 -11  15  -6    0.44    1.40
 -15  11  -6   -0.33    1.56
  11   4  -6    0.55    1.40
 -15   4  -6    0.73    0.76
  15  -4  -6    1.71    1.34
 -11  -4  -6    0.97    0.99
  15 -11  -6    1.52    1.29
  -4 -11  -6    0.78    1.17
  11 -15  -6   -0.34    1.17
   4 -15  -6    1.71    1.50
   4 -15   7    1.99    1.47
  -4 -11   7    0.52    1.28
  11 -15   7    0.92    1.29
  15 -11   7   -0.21    1.75
 -11  -4   7    2.22    1.13
  15  -4   7    0.47    1.97
 -15   4   7    0.61    1.50
   4  11  -7    0.07    2.11
   4  11  -7    0.59    2.10
  11   4  -7    0.76    1.60
  15  -4  -7    0.38    1.50
  15 -11  -7    2.26    1.52
  11 -15  -7    1.70    0.95
  -4  15  -7    1.98    1.53
   4  11  -7    1.56    1.46
 -11  15  -7    2.06    1.50
 -15  11  -7    2.38    1.31
  11   4  -7   -0.35    1.83
 -15   4  -7    0.96    0.96
  15  -4  -7    0.17    1.82
 -11  -4  -7   -0.68    1.16
  15 -11  -7    0.70    1.07
  -4 -11  -7    1.75    1.29
  11 -15  -7    0.02    1.23
   4 -15  -7    1.71    1.54
   4 -15   8   -1.50    1.52
  -4 -11   8    0.21    1.32
  11 -15   8    0.08    1.35
  15 -11   8   -1.17    1.40
 -11  -4   8    1.29    1.22
  15  -4   8    0.55    2.48
 -15   4   8   -0.12    1.22
   4  11  -8    0.92    2.21
  11   4  -8    2.32    1.64
  15  -4  -8    1.16    1.53
  11 -15  -8    0.48    1.18
  15 -11  -8    0.40    1.64
   4  11  -8   -0.35    1.55
  -4  15  -8   -0.63    1.58
 -11  15  -8    0.63    1.56
 -15  11  -8   -0.99    1.41
  11   4  -8    1.77    1.66
 -15   4  -8   -1.62    1.47
  15  -4  -8    0.32    1.37
 -11  -4  -8   -0.13    1.61
  15 -11  -8   -0.63    1.16
  -4 -11  -8    2.57    1.30
  11 -15  -8    0.85    1.30
   4 -15  -8   -2.62    1.58
   4 -15   9    3.44    1.65
  -4 -11   9    0.02    1.52
  11 -15   9    0.90    1.56
  15 -11   9   -0.83    1.63
 -11  -4   9    0.71    1.50
  15  -4   9    0.80    2.47
 -15   4   9    2.07    1.52
   4  11  -9    1.09    2.32
  11   4  -9   -0.83    1.79
  11 -15  -9    1.48    1.22
  15  -4  -9    1.94    1.74
  15 -11  -9    5.08    1.91
  -4  15  -9   -0.30    1.76
   4  11  -9   -0.06    1.72
 -15  11  -9    2.24    1.65
  11   4  -9   -1.80    2.05
 -15   4  -9    2.47    1.35
  15  -4  -9    3.08    1.91
 -11  -4  -9    0.15    1.42
  15 -11  -9   -0.13    1.37
  -4 -11  -9    0.50    1.48
  11 -15  -9    2.95    1.47
   4 -15  -9    0.70    1.77
   4 -15  10   -0.71    1.78
  11 -15  10    1.72    1.64
  -4 -11  10    0.09    1.67
  15 -11  10    3.18    1.70
 -11  -4  10    0.67    1.62
  15  -4  10   -0.45    2.66
 -15   4  10    1.34    2.25
   4  11 -10    1.81    2.07
  11   4 -10    1.76    1.83
  15  -4 -10    2.71    1.90
  11 -15 -10    1.69    1.52
  15 -11 -10   -2.72    2.15
   4  11 -10    1.58    1.86
 -11  15 -10   -1.31    1.87
 -15  11 -10    0.50    1.82
  11   4 -10    1.35    2.23
 -15   4 -10    1.99    1.54
  15  -4 -10   -1.08    2.30
 -11  -4 -10   -0.23    1.54
  15 -11 -10    1.09    1.47
  -4 -11 -10   -1.80    1.60
  11 -15 -10   -0.88    1.57
   4 -15 -10    0.39    1.92
 -11  -5   0   11.53    1.36
 -16  11   0   14.55    1.49
  16 -11   0   10.10    0.69
 -11  -5   1    1.36    1.02
 -16  11   1    2.36    1.01
  -5 -11  -1    0.44    0.51
 -11  -5  -1    1.02    1.00
 -11  16  -1    0.63    0.34
 -16  11  -1    0.34    1.13
  -5 -11  -1    1.22    0.83
 -11  -5  -1    0.09    0.44
 -11  -5  -1    1.09    0.63
  16 -11  -1    0.98    0.48
 -11  -5   2    1.36    1.06
 -16  11   2    2.14    1.01
 -16   5   2    0.79    1.32
  -5 -11   2    0.80    0.90
  16 -11   2    1.90    0.69
 -11  -5   2    0.97    0.63
  -5 -11  -2    1.51    0.51
 -11  -5  -2    1.46    1.06
 -16   5  -2    1.29    1.48
 -16  11  -2    2.47    1.26
 -11  16  -2    1.29    0.58
  -5 -11  -2    1.97    0.90
 -11  -5  -2    1.30    0.45
  16 -11  -2    1.09    0.43
 -11  -5  -2    1.24    0.60
  16 -11  -2    0.94    0.75
  -5 -11  -2    1.85    1.03
  11 -16  -2    1.65    1.18
   5 -16  -2    3.30    1.45
 -11  -5   3    2.50    1.01
 -16   5   3    1.78    1.24
 -16  11   3   -1.89    0.96
   5 -16   3   -1.31    1.20
  11 -16   3   -0.18    1.03
  -5 -11   3    1.10    0.87
  16 -11   3    0.13    1.00
 -11  -5   3    0.76    0.89
  -5  16  -3   -0.01    0.32
  -5 -11  -3    0.37    0.64
 -11  -5  -3   -0.71    1.06
 -16   5  -3   -2.56    1.48
 -16  11  -3   -0.77    1.23
   5  11  -3   -0.92    0.76
  11   5  -3    0.79    0.74
 -11  16  -3    0.37    0.53
  16  -5  -3   -0.45    0.77
  -5  16  -3   -0.48    0.81
 -11  16  -3   -0.77    0.74
   5 -16  -3   -1.58    1.24
 -11  -5  -3   -0.33    0.45
  -5 -11  -3   -0.20    0.89
  11 -16  -3   -0.45    1.12
  16 -11  -3    0.43    0.55
  16 -11  -3   -0.43    0.62
 -11  -5  -3   -0.33    0.84
  -5 -11  -3    0.46    0.91
  11 -16  -3    0.94    1.13
   5 -16  -3   -0.34    1.40
 -16   5   4    2.14    1.48
 -16  11   4    1.07    1.09
   5 -16   4    1.68    1.40
  11 -16   4    2.48    1.22
  -5 -11   4    1.78    1.08
  16 -11   4    4.02    1.02
 -11  -5   4    3.68    0.89
  -5  16  -4    0.76    1.06
  -5 -11  -4    1.67    0.60
 -11  -5  -4    4.28    1.29
   5  11  -4    1.58    1.48
 -16   5  -4    2.51    1.74
  11   5  -4    5.10    1.46
  16  -5  -4    3.20    1.45
 -16  11  -4    3.50    1.57
  16 -11  -4    3.65    1.26
  11   5  -4    1.56    0.66
  -5  16  -4    4.17    1.54
 -16  11  -4    1.60    0.77
   5  11  -4    3.37    1.21
 -11  16  -4    4.79    1.41
   5 -16  -4    3.21    1.41
 -11  -5  -4    1.75    0.61
  -5 -11  -4    1.76    1.12
  11 -16  -4    4.11    1.30
  16 -11  -4    2.33    1.09
 -11  -5  -4    2.15    1.13
  -5 -11  -4    2.43    1.11
  11 -16  -4    3.83    1.24
   5 -16  -4    1.97    1.66
 -16   5   5    2.22    1.38
   5 -16   5    2.79    1.39
  11 -16   5    1.21    1.18
  -5 -11   5    0.33    1.04
  16 -11   5   -0.19    1.10
 -11  -5   5    0.26    0.93
  16  -5   5    0.85    0.63
  -5  16  -5    0.76    1.28
   5  11  -5    1.17    1.76
  11   5  -5    1.34    1.49
  16  -5  -5    2.06    1.36
 -11  -5  -5   -0.71    1.34
  16 -11  -5    0.63    1.30
 -16   5  -5    0.92    1.70
 -16  11  -5   -0.10    1.55
  16 -11  -5    0.67    0.62
 -11  -5  -5    0.58    0.68
   5 -16  -5    0.61    1.41
  -5 -11  -5    0.83    1.16
  11 -16  -5   -0.10    1.30
  -5  16  -5    2.76    1.45
 -16  11  -5    0.00    1.30
  11   5  -5    1.23    1.09
   5  11  -5   -0.62    1.25
 -11  16  -5   -0.47    1.40
 -16   5  -5    0.52    0.46
  16  -5  -5    0.33    0.60
  16 -11  -5    1.63    1.18
 -11  -5  -5    0.59    1.27
  -5 -11  -5   -1.12    1.06
  11 -16  -5   -0.05    0.73
   5 -16  -5   -0.95    1.50
   5 -16   6   -2.30    1.48
  11 -16   6   -0.02    1.24
  -5 -11   6    2.96    1.19
  16 -11   6    0.35    1.67
 -11  -5   6    0.72    1.08
  16  -5   6    0.73    1.23
   5  11  -6    2.84    1.76
  11   5  -6    2.64    1.62
  16  -5  -6    1.29    1.47
  16 -11  -6    1.28    1.43
 -11  -5  -6    2.04    1.57
 -16   5  -6   -3.23    1.84
   5 -16  -6   -1.76    1.48
  11 -16  -6    1.17    1.41
  -5  16  -6    1.16    1.53
   5  11  -6    1.54    1.39
 -11  16  -6    1.56    1.46
 -16  11  -6    1.48    1.17
  11   5  -6    1.42    1.46
 -16   5  -6    0.58    0.71
  16  -5  -6   -0.35    1.34
  16 -11  -6   -0.14    0.99
 -11  -5  -6   -0.03    1.44
  -5 -11  -6   -0.36    1.14
  11 -16  -6    1.01    1.24
   5 -16  -6    1.36    1.51
   5 -16   7   -0.10    1.49
  11 -16   7   -0.54    1.34
  -5 -11   7    0.47    1.26
  16 -11   7    1.49    1.88
 -11  -5   7    0.95    1.59
  16  -5   7   -0.77    1.91
   5  11  -7    2.15    2.14
  11   5  -7   -0.13    1.04
  16  -5  -7    1.35    1.54
  16 -11  -7   -0.98    1.54
  11 -16  -7    0.50    0.71
  -5 -11  -7    1.74    1.23
  -5  16  -7    0.70    1.60
   5  11  -7   -0.59    1.50
 -11  16  -7    0.96    0.95
 -16  11  -7    0.19    1.30
  11   5  -7    1.56    1.88
 -16   5  -7   -0.77    1.40
  16  -5  -7    0.98    1.89
  16 -11  -7    1.26    1.11
 -11  -5  -7   -0.61    1.21
  -5 -11  -7   -0.05    1.21
  11 -16  -7    0.72    1.29
   5 -16  -7    0.42    1.58
   5 -16   8    1.46    1.65
  11 -16   8    0.21    1.49
  -5 -11   8    1.40    1.45
  16 -11   8    2.78    1.63
 -11  -5   8    0.12    1.37
  16  -5   8    4.20    2.01
 -16   5   8   -1.23    1.72
   5  11  -8    2.38    2.59
  11   5  -8    0.81    1.91
  16 -11  -8    4.55    1.79
  16  -5  -8    2.42    1.67
  11 -16  -8   -0.67    1.00
  -5  16  -8    3.52    1.74
   5  11  -8    2.40    1.74
 -11  16  -8    2.33    1.71
 -16  11  -8    1.69    2.05
  11   5  -8   -3.22    1.92
 -16   5  -8    2.14    1.23
  16  -5  -8    2.77    1.65
  16 -11  -8   -0.46    1.31
 -11  -5  -8    0.25    1.44
  -5 -11  -8    1.96    1.39
  11 -16  -8    0.93    0.91
   5 -16  -8    1.02    1.72
   5 -16   9    0.35    1.72
  11 -16   9    2.71    1.56
  -5 -11   9    0.58    1.53
  16 -11   9    1.00    1.75
 -11  -5   9    0.44    1.47
  16  -5   9   -2.95    2.50
 -16   5   9    4.13    1.64
   5  11  -9   -5.60    2.65
  11   5  -9    3.01    1.92
  16  -5  -9    1.68    1.79
  16 -11  -9    0.85    2.01
  -5  16  -9   -0.43    1.81
   5  11  -9    0.16    1.88
 -11  16  -9   -0.60    1.14
  11   5  -9    2.50    2.24
 -16  11  -9    2.12    1.69
 -16   5  -9   -0.97    1.84
  16  -5  -9    1.20    2.13
  16 -11  -9   -0.35    1.86
 -11  -5  -9   -1.03    2.02
  -5 -11  -9    0.26    1.44
  11 -16  -9    1.61    1.53
   5 -16  -9   -0.91    1.84
  -6 -11   0    6.23    0.75
 -11  -6   0    6.23    1.22
 -17  11   0    7.15    1.47
 -11  -6   0    5.18    0.66
  17 -11   0    7.08    0.81
 -11  -6   1    2.08    1.09
 -17  11   1    2.88    1.20
 -17   6   1    4.87    1.49
 -11  -6   1    1.72    0.62
  17 -11   1    1.25    0.87
  17 -11   1    2.09    0.57
  -6 -11  -1    2.42    0.80
 -11  -6  -1    4.86    1.05
 -17  11  -1    2.20    1.35
  -6 -11  -1    3.50    0.89
 -11  -6  -1    2.13    0.52
  17 -11  -1    1.57    0.59
 -11  -6  -1    1.48    0.54
 -11  -6   2    1.78    1.12
 -17   6   2    3.41    1.50
 -17  11   2    5.19    1.20
  11 -17   2    2.99    0.79
  -6 -11   2    3.37    0.92
 -11  -6   2    1.44    0.98
  17 -11   2    3.49    1.07
  -6 -11  -2    2.60    0.61
 -11  -6  -2    4.43    1.11
 -17   6  -2    4.51    1.65
 -17  11  -2    3.16    1.45
  -6 -11  -2    3.66    0.93
 -11  -6  -2    1.83    0.72
  17 -11  -2    1.35    0.54
  17 -11  -2    2.19    0.83
 -11  -6  -2    2.03    0.81
  -6 -11  -2    3.19    1.37
 -11  -6   3   -0.01    1.05
 -17   6   3    1.88    1.38
 -17  11   3    0.07    1.11
   6 -17   3    0.08    1.34
  11 -17   3    1.00    1.16
  -6 -11   3    2.59    0.91
 -11  -6   3    1.12    0.80
  17 -11   3    0.50    0.91
  -6 -11  -3    1.00    0.56
 -11  -6  -3   -0.83    1.08
 -17   6  -3   -0.61    1.61
 -17  11  -3    1.41    1.43
   6  11  -3    1.99    1.15
  11   6  -3   -0.20    1.33
 -11  17  -3    0.43    0.46
  -6 -11  -3    0.91    0.92
   6 -17  -3    0.51    1.34
  11 -17  -3    0.05    1.25
 -11  -6  -3    0.66    0.69
  17 -11  -3    0.56    0.50
  17 -11  -3    0.37    0.93
 -11  -6  -3    1.36    0.66
  -6 -11  -3    0.15    0.93
  11 -17  -3    1.18    1.29
   6 -17  -3    1.43    1.52
 -17  11   4    3.20    1.23
 -17   6   4    3.67    1.52
   6 -17   4    3.29    1.46
  11 -17   4    4.49    1.31
  -6 -11   4    1.67    1.08
 -11  -6   4    1.50    0.96
  17 -11   4    2.26    1.20
  -6  17  -4    0.80    0.87
  -6 -11  -4    2.35    0.88
 -11  -6  -4    4.59    1.28
 -17   6  -4    3.40    1.14
   6  11  -4    1.45    1.18
  11   6  -4    1.80    1.55
 -17  11  -4    1.35    1.67
  17  -6  -4    3.20    1.50
   6  11  -4    2.02    1.24
  -6  17  -4    3.46    1.62
 -11  17  -4    5.57    1.53
  -6 -11  -4    1.75    1.08
 -11  -6  -4    1.62    0.66
   6 -17  -4    2.33    0.94
  11 -17  -4    4.20    0.88
  17 -11  -4    2.19    1.21
 -11  -6  -4    1.19    0.85
  -6 -11  -4    1.23    1.06
  11 -17  -4    1.67    1.34
   6 -17  -4    5.44    1.71
 -17   6   5    3.73    1.46
   6 -17   5    2.38    1.55
  11 -17   5    2.66    1.36
  -6 -11   5    2.42    1.15
 -11  -6   5    1.66    1.06
  17 -11   5    2.02    1.36
  -6  17  -5    2.22    1.25
  -6 -11  -5    1.86    0.73
   6  11  -5    0.57    1.47
 -11  -6  -5    2.73    1.40
  11   6  -5    1.93    1.69
 -17   6  -5    2.60    1.90
  17  -6  -5    3.05    1.56
 -17  11  -5    3.98    1.76
  17 -11  -5    0.56    1.46
 -17  11  -5   -0.38    0.85
  17 -11  -5    0.36    0.56
  -6 -11  -5    2.56    1.20
   6  11  -5    4.53    1.38
 -11  -6  -5    0.61    1.03
  11   6  -5    1.35    1.22
  -6  17  -5   -0.16    1.64
   6 -17  -5    1.41    1.54
 -11  17  -5    3.14    1.54
  11 -17  -5    3.91    1.47
  17 -11  -5    2.19    1.33
 -11  -6  -5    2.95    0.96
  -6 -11  -5    0.23    1.09
  11 -17  -5    1.82    1.39
   6 -17  -5    2.92    1.64
   6 -17   6    2.32    1.60
  11 -17   6    0.67    1.42
  -6 -11   6    1.02    1.23
 -11  -6   6    2.20    1.19
  17 -11   6    1.85    2.06
   6  11  -6    3.61    1.88
  -6 -11  -6    0.58    0.85
  11   6  -6   -1.29    1.90
  17  -6  -6    0.54    1.59
 -11  -6  -6    1.76    1.56
 -17   6  -6    2.48    2.05
  17 -11  -6    3.00    1.59
  -6 -11  -6    2.93    1.35
   6 -17  -6    4.12    1.62
  11 -17  -6    1.25    1.58
   6  11  -6    1.50    1.54
  11   6  -6    1.40    1.20
  -6  17  -6    1.45    1.71
 -11  17  -6   -0.73    1.70
 -17  11  -6    2.02    1.12
  17 -11  -6    1.74    1.54
 -11  -6  -6    2.10    1.08
  -6 -11  -6    2.80    1.19
  11 -17  -6    1.68    1.44
   6 -17  -6    0.86    1.74
   6 -17   7    1.69    1.63
  11 -17   7    3.24    1.53
  -6 -11   7    1.98    1.40
 -11  -6   7    1.21    1.35
  17 -11   7    1.31    1.71
   6  11  -7    1.11    2.46
  11   6  -7    0.04    2.03
  17  -6  -7    2.95    1.71
  17 -11  -7    0.69    1.74
  -6 -11  -7    2.05    1.04
 -11  -6  -7    2.67    1.92
 -17   6  -7    2.29    1.35
   6 -17  -7    2.53    1.03
  11 -17  -7    2.67    1.02
  -6  17  -7    0.55    1.78
   6  11  -7    5.14    1.73
  11   6  -7    0.43    1.60
 -11  17  -7    3.48    1.73
 -17  11  -7    2.02    1.54
  17 -11  -7    0.80    1.28
 -11  -6  -7    0.91    1.22
  -6 -11  -7    0.70    1.29
  11 -17  -7    0.24    1.47
   6 -17  -7    1.81    1.75
   6 -17   8    0.02    1.72
  11 -17   8   -0.34    1.55
  -6 -11   8    1.56    1.44
 -11  -6   8    0.81    1.40
  17 -11   8   -1.75    1.80
   6  11  -8   -0.09    2.78
  11   6  -8   -1.53    2.05
  17  -6  -8   -1.63    1.75
  17 -11  -8    0.69    1.84
   6  11  -8    2.12    1.83
  -6  17  -8    3.50    1.80
 -11  17  -8    0.31    1.09
 -17  11  -8   -0.06    1.55
  11   6  -8    2.59    2.59
  17 -11  -8   -0.60    1.35
 -11  -6  -8    0.81    1.75
  -6 -11  -8   -0.34    1.31
  11 -17  -8    0.28    1.54
   6 -17  -8    3.68    1.74
  -7 -11   0    6.56    0.87
 -11  -7   0    8.17    1.31
  11 -18   0   10.48    0.98
  18 -11   0    9.58    0.96
  18 -11   0    6.72    0.86
 -11  -7   1    3.39    1.15
  11 -18   1    5.31    0.88
  18 -11   1    4.95    1.03
  -7 -11  -1    3.75    0.74
 -11  -7  -1    7.19    1.16
 -18  11  -1    4.52    1.60
  11 -18  -1    4.24    0.90
  -7 -11  -1    6.43    0.93
  18 -11  -1    3.58    0.68
  18 -11  -1    3.97    0.94
 -11  -7  -1    5.40    0.86
 -11  -7   2    2.62    1.12
 -18   7   2    3.10    1.59
 -18  11   2    4.25    1.35
  11 -18   2    3.24    0.83
  -7 -11   2    4.03    0.95
 -11  -7   2    2.07    0.78
  18 -11   2    3.41    1.20
  -7 -11  -2    1.47    0.90
 -11  -7  -2    3.73    1.46
 -18   7  -2    3.10    1.78
 -18  11  -2    3.04    1.55
  11 -18  -2    3.77    1.46
  -7 -11  -2    3.66    0.91
 -11  -7  -2    2.29    0.78
  18 -11  -2    1.53    0.49
  18 -11  -2    2.20    0.87
 -11  -7  -2    2.57    0.65
  -7 -11  -2    4.36    0.96
 -18   7   3    1.34    1.57
 -18  11   3    3.70    1.32
   7 -18   3    1.95    1.50
  11 -18   3    3.19    0.86
  -7 -11   3    4.01    1.04
 -11  -7   3    3.47    1.18
  18 -11   3    3.09    1.48
  -7 -11  -3    2.33    0.67
 -11  -7  -3    3.06    1.57
 -18   7  -3    4.79    1.19
 -18  11  -3    3.79    1.69
   7  11  -3    2.99    1.00
  11   7  -3    4.10    1.45
   7 -18  -3    3.39    1.56
  11 -18  -3    2.27    1.49
  -7 -11  -3    3.09    0.99
  18 -11  -3    2.83    1.09
 -11  -7  -3    2.98    0.99
  -7 -11  -3    2.20    1.01
  11 -18  -3    4.94    1.57
   7 -18  -3    5.49    1.77
 -18  11   4    3.95    1.27
 -18   7   4    0.47    1.58
   7 -18   4    3.12    1.54
  11 -18   4    2.05    1.40
  -7 -11   4    0.48    1.42
 -11  -7   4    3.21    0.99
  18 -11   4    1.68    1.72
  -7 -11  -4    2.76    0.71
 -11  -7  -4    2.79    1.24
   7  11  -4    2.49    1.20
 -18   7  -4    2.19    1.93
 -18  11  -4    1.25    1.79
  11   7  -4    2.10    1.62
  -7  18  -4    2.83    1.65
 -11  18  -4    1.74    1.00
   7 -18  -4    2.22    1.56
  11 -18  -4    1.41    1.53
  -7 -11  -4    1.89    1.05
 -11  -7  -4    1.92    0.94
  18 -11  -4    1.24    0.51
  18 -11  -4    2.31    1.29
 -11  -7  -4    2.04    1.09
  -7 -11  -4    2.38    1.00
  11 -18  -4    1.86    1.47
   7 -18  -4    2.56    1.81
 -18   7   5    7.42    1.82
   7 -18   5    6.59    1.82
  11 -18   5    7.67    1.70
  -7 -11   5    6.36    1.35
 -11  -7   5    6.69    1.34
  18 -11   5    3.17    2.33
  -7 -11  -5    4.31    0.96
   7  11  -5    4.45    1.79
 -11  -7  -5    8.06    1.59
 -18   7  -5    7.59    2.29
  11   7  -5    9.60    2.07
  18  -7  -5    7.39    1.89
 -18  11  -5    6.62    2.20
  18 -11  -5    8.20    1.81
  11   7  -5    5.30    1.14
   7  11  -5    6.57    1.67
  -7  18  -5    8.92    2.00
 -11  18  -5    8.01    1.95
  -7 -11  -5    6.09    1.40
   7 -18  -5    8.47    1.88
 -11  -7  -5    2.84    1.26
  11 -18  -5    7.35    1.83
  18 -11  -5    4.67    1.38
 -11  -7  -5    3.63    1.42
  -7 -11  -5    4.27    1.25
  11 -18  -5    6.77    1.77
   7 -18  -5    8.50    2.01
   7 -18   6    3.43    1.64
  11 -18   6    1.03    0.93
  -7 -11   6    0.94    1.21
 -11  -7   6    1.60    1.30
  18 -11   6    0.61    1.64
  -7 -11  -6    0.39    0.90
   7  11  -6   -1.36    1.94
  11   7  -6    3.44    1.96
 -11  -7  -6    1.84    1.51
 -18   7  -6    2.62    1.27
  18  -7  -6    0.31    1.64
 -18  11  -6   -1.43    2.02
  18 -11  -6    0.38    1.67
  -7 -11  -6    2.02    1.33
  18 -11  -6   -0.02    0.74
   7  11  -6    2.25    1.58
  -7  18  -6    2.85    1.74
   7 -18  -6   -0.15    1.00
 -11  -7  -6    0.61    0.97
  11   7  -6    1.26    1.24
 -11  18  -6    2.41    1.71
  11 -18  -6   -0.20    0.99
 -18  11  -6    0.47    1.17
  18 -11  -6    1.10    1.65
 -11  -7  -6    1.07    1.37
  -7 -11  -6    0.11    1.14
  11 -18  -6    2.32    1.48
   7 -18  -6    1.13    1.74
   7 -18   7    1.54    1.78
  11 -18   7    0.63    1.01
  -7 -11   7    0.83    1.44
 -11  -7   7    0.11    2.00
  18 -11   7    3.46    2.63
   7  11  -7    1.93    2.59
  11   7  -7    4.39    2.33
  -7 -11  -7    2.82    1.11
  18  -7  -7    3.25    1.84
 -11  -7  -7    0.69    1.88
  18 -11  -7    3.94    1.86
 -18  11  -7    1.40    1.40
  -7 -11  -7    1.74    1.59
   7 -18  -7    1.06    1.81
  11 -18  -7    2.06    1.80
   7  11  -7    2.97    1.89
  -7  18  -7    3.70    1.93
  11   7  -7    3.04    1.71
 -11  18  -7    2.28    1.18
 -18  11  -7    1.04    1.70
  18 -11  -7    0.94    1.44
 -11  -7  -7    2.21    1.18
  -7 -11  -7    1.43    1.30
  11 -18  -7    2.66    1.66
   7 -18  -7    3.41    1.84
   7 -18   8    1.06    1.82
  11 -18   8    1.01    1.67
  -7 -11   8   -0.32    2.03
 -11  -7   8   -1.80    1.66
  18 -11   8    1.70    2.13
   7  11  -8    4.55    3.04
  11   7  -8   -1.01    2.38
  18  -7  -8    2.76    1.90
  18 -11  -8   -1.36    1.99
 -18   7  -8    1.43    1.44
   7 -18  -8    0.44    1.12
  11 -18  -8    1.87    1.13
  -7  18  -8    1.64    1.96
 -11  18  -8    1.30    1.97
   7  11  -8    2.95    2.07
  11   7  -8    3.86    2.84
 -18  11  -8    1.59    1.60
  18 -11  -8    2.48    1.50
 -11  -7  -8    0.93    1.28
  -7 -11  -8    0.11    1.32
  11 -18  -8    1.30    1.72
   7 -18  -8    0.62    1.18
  -8 -11   0    3.14    0.78
 -11  -8   0    5.37    1.10
 -11  -8   1   -0.18    1.03
 -19  11   1    3.19    1.38
  -8 -11  -1    0.44    0.69
 -11  -8  -1    1.59    0.97
 -19  11  -1    1.32    1.52
 -19   8  -1   -0.12    1.03
   8 -19  -1    1.87    0.90
  -8 -11  -1    1.12    0.80
 -11  -8  -1    2.30    0.79
 -11  -8   2    1.85    1.01
 -19   8   2    1.45    1.54
 -19  11   2    2.13    1.37
  -8 -11   2    1.60    0.88
 -11  -8   2    1.75    0.74
  -8 -11  -2    2.51    0.91
 -11  -8  -2    1.69    0.97
 -19   8  -2    0.57    1.75
 -19  11  -2    0.18    0.99
   8 -19  -2    2.47    1.52
  11 -19  -2    4.80    1.47
  -8 -11  -2    1.52    0.82
 -11  -8  -2    0.91    0.60
 -11  -8  -2    0.29    0.62
  -8 -11  -2    0.80    1.14
 -19   8   3    1.54    1.48
 -19  11   3    1.52    0.78
   8 -19   3    1.03    1.40
  11 -19   3    0.26    1.34
  -8 -11   3    0.26    0.90
 -11  -8   3    0.26    0.81
  -8 -11  -3   -0.99    0.88
 -11  -8  -3    0.19    0.99
 -19   8  -3   -0.17    1.80
 -19  11  -3    1.48    1.64
   8 -19  -3    0.96    1.48
  -8 -11  -3    0.26    0.86
  11 -19  -3   -1.34    1.45
 -11  -8  -3    0.69    0.81
 -11  -8  -3    1.22    0.68
  -8 -11  -3    0.78    0.85
  11 -19  -3   -1.79    1.57
   8 -19  -3    0.67    1.67
 -19   8   4    0.91    1.57
 -19  11   4    1.42    1.35
   8 -19   4    0.31    1.55
  11 -19   4    2.25    0.87
  -8 -11   4    0.98    1.03
 -11  -8   4   -1.00    1.30
  -8 -11  -4    1.46    0.73
 -11  -8  -4    1.93    1.13
 -19   8  -4    1.65    1.99
 -19  11  -4    2.88    1.80
   8  11  -4   -0.34    1.25
  11   8  -4    2.68    1.57
  -8 -11  -4    0.82    0.99
   8 -19  -4   -0.15    1.60
  11 -19  -4    0.51    1.57
 -11  -8  -4    1.43    0.72
 -11  -8  -4    0.77    0.78
  -8 -11  -4    1.14    0.94
  11 -19  -4    0.60    1.53
   8 -19  -4   -0.61    1.83
 -19   8   5    0.02    1.53
   8 -19   5   -0.78    1.57
  11 -19   5   -1.23    0.94
  -8 -11   5    0.91    1.11
 -11  -8   5    0.69    1.44
  -8 -11  -5    0.75    0.82
 -11  -8  -5    1.80    1.23
   8  11  -5    2.01    1.50
 -19  11  -5    0.75    1.92
  11   8  -5   -1.01    1.72
  19  -8  -5    2.37    1.59
  -8  19  -5   -1.00    1.73
 -11  19  -5    1.96    1.70
  -8 -11  -5   -0.30    1.10
   8 -19  -5    1.20    1.68
  11 -19  -5    0.53    1.61
 -11  -8  -5    1.47    0.82
 -11  -8  -5    0.11    0.88
  -8 -11  -5    1.73    0.98
  11 -19  -5    4.04    1.56
   8 -19  -5    1.99    1.73
   8 -19   6    0.12    1.63
  11 -19   6    0.37    1.52
  -8 -11   6    0.41    1.20
 -11  -8   6   -0.23    1.21
  -8 -11  -6    0.44    0.92
   8  11  -6    1.08    1.91
 -11  -8  -6    0.45    1.40
  11   8  -6   -1.20    2.02
 -19   8  -6    0.97    2.11
  19  -8  -6    0.20    1.70
 -19  11  -6    0.97    2.05
  19 -11  -6    0.55    1.67
  -8 -11  -6   -0.16    1.27
   8  11  -6    0.96    1.60
  -8  19  -6    2.01    1.09
   8 -19  -6   -1.88    1.67
  11   8  -6   -0.87    1.27
 -11  19  -6    1.95    1.77
 -11  -8  -6    0.68    0.95
  11 -19  -6    0.24    1.65
 -11  -8  -6   -1.70    0.97
  -8 -11  -6    0.06    1.07
  11 -19  -6   -0.05    1.58
   8 -19  -6    1.90    1.78
   8 -19   7   -0.03    1.73
  11 -19   7   -0.58    1.62
  -8 -11   7    3.29    1.31
 -11  -8   7   -0.20    1.39
   8  11  -7    0.05    2.54
  11   8  -7    0.90    2.40
  19  -8  -7   -0.10    1.82
  19 -11  -7    1.24    1.89
  -8 -11  -7    0.04    1.51
   8  11  -7    0.25    1.92
  -8  19  -7   -2.04    1.91
   8 -19  -7   -0.05    1.12
 -11  19  -7    1.08    1.87
  11 -19  -7   -0.80    1.11
  11   8  -7    1.81    1.69
 -11  -8  -7    1.76    1.10
  -8 -11  -7    0.59    1.17
  11 -19  -7   -1.74    1.64
   8 -19  -7    2.13    1.82
  -9 -11   0    0.10    0.74
 -11  -9   0    0.07    0.94
 -20  11   0    2.93    1.51
 -11  -9   1    4.39    1.10
  -9 -11   1    3.44    0.93
  -9 -11  -1    3.85    0.83
 -11  -9  -1    4.23    1.05
 -20  11  -1    6.55    1.83
 -11  -9  -1    2.60    0.99
 -20  11   2   -0.67    1.41
 -20   9   2    1.56    0.92
   9 -20   2    0.87    0.88
  -9 -11   2    0.56    0.84
 -11  -9   2    0.26    0.72
  -9 -11  -2   -0.60    0.71
 -11  -9  -2   -0.46    0.89
 -20   9  -2    1.00    1.74
 -20  11  -2   -3.56    1.67
  -9 -11  -2   -0.03    1.03
 -11  -9  -2   -0.60    0.61
 -11  -9  -2    0.00    0.82
  -9 -11  -2    0.20    0.77
  11 -20  -2    1.65    1.64
 -20   9   3    3.10    1.04
 -20  11   3    1.51    1.54
   9 -20   3    3.55    1.61
  11 -20   3    3.41    1.58
  -9 -11   3    2.76    0.99
 -11  -9   3    2.54    0.92
  -9 -11  -3    2.17    0.80
 -11  -9  -3    3.22    1.03
 -20   9  -3    3.47    2.02
 -20  11  -3    3.69    1.94
   9 -20  -3    5.38    1.71
  11 -20  -3    3.54    1.03
  -9 -11  -3    1.67    0.93
 -11  -9  -3    1.48    0.74
 -11  -9  -3    1.30    0.75
  -9 -11  -3    1.46    0.88
   9 -20  -3    1.68    1.99
  11 -20  -3    4.48    1.83
 -20   9   4    0.32    1.58
 -20  11   4    0.64    1.43
   9 -20   4    0.78    1.58
  11 -20   4    1.09    0.91
  -9 -11   4   -0.05    1.32
 -11  -9   4    0.71    0.96
  -9 -11  -4    0.69    0.76
 -11  -9  -4   -0.13    1.06
 -20  11  -4    1.13    1.94
 -20   9  -4   -0.03    1.21
   9  11  -4    0.55    1.27
  11   9  -4   -0.33    1.52
   9 -20  -4   -1.30    1.63
  11 -20  -4   -0.79    1.63
  -9 -11  -4   -0.05    1.26
 -11  -9  -4    1.02    0.76
 -11  -9  -4    1.13    0.78
  -9 -11  -4    1.42    0.87
   9 -20  -4   -0.23    1.82
  11 -20  -4   -0.79    1.69
 -20   9   5    4.42    1.71
   9 -20   5    3.94    1.85
  11 -20   5    3.57    1.10
  -9 -11   5    1.36    1.63
 -11  -9   5    0.64    1.20
  -9 -11  -5    1.77    0.99
 -11  -9  -5    3.56    1.32
 -20   9  -5    5.26    2.34
 -20  11  -5    2.77    2.29
   9  11  -5    3.27    1.76
  11   9  -5    1.17    2.06
  -9 -11  -5    2.39    1.59
   9 -20  -5    4.14    1.91
 -11  -9  -5    2.89    0.97
  11 -20  -5    4.47    1.87
 -11  -9  -5    2.25    0.96
  -9 -11  -5    2.16    1.08
  11 -20  -5    4.37    1.85
   9 -20  -5    3.92    2.00
 -11 -10   0    1.65    0.99
 -10 -11   0    2.03    0.88
 -11 -10   1    1.54    1.03
 -11 -10   1    2.37    0.78
 -11 -10  -1    3.15    1.30
 -10 -11  -1    1.91    0.88
 -11 -10  -1    3.41    0.77
 -21  11   2    1.06    1.62
 -21  10   2    0.23    1.65
 -10 -11   2    0.51    0.86
 -11 -10   2    0.33    1.09
 -11 -10  -2    1.42    1.23
 -10 -11  -2    0.98    0.82
 -21  11  -2    4.77    1.84
 -21  10  -2    2.48    1.93
 -11 -10  -2    0.73    0.94
 -10 -11  -2    0.23    0.77
 -11 -10  -2   -0.31    0.91
 -10 -11  -2    1.29    0.77
 -21  10   3    1.06    1.71
 -21  11   3    3.03    1.57
  10 -21   3   -1.34    1.59
  11 -21   3   -0.63    1.57
 -11 -10   3    1.20    0.91
 -10 -11   3    1.41    0.94
 -10 -11  -3    1.36    0.84
 -11 -10  -3    1.87    0.96
 -21  10  -3    3.73    2.03
 -21  11  -3   -0.65    1.24
  10 -21  -3    1.92    1.76
  11 -21  -3    0.01    1.73
 -11 -10  -3    0.04    0.99
 -10 -11  -3    1.20    0.84
 -11 -10  -3    0.88    0.74
 -10 -11  -3    0.70    0.81
  10 -21  -3    0.80    2.00
  11 -21  -3    1.08    1.93
 -11 -10  -4    0.45    0.78
 -10 -11  -4   -0.32    0.88
 -12  12   0   79.82    2.79
   0 -12   0   89.91    3.41
  12 -12   0   82.01    2.75
 -12  12   1    1.61    0.62
   0 -12   1    1.79    0.61
  12 -12   1    2.81    0.72
 -12   0  -1    1.79    0.71
 -12  12  -1    0.91    0.73
  12 -12  -1    1.34    0.75
 -12  12   2   29.74    1.36
 -12   0   2   34.35    2.16
   0 -12   2   33.90    1.89
  12 -12   2   30.22    1.53
 -12   0  -2   37.61    2.27
  12   0  -2   35.39    2.28
 -12  12  -2   30.85    1.73
   0  12  -2   35.59    2.11
   0 -12  -2   36.62    1.97
  12 -12  -2   30.90    1.51
  12 -12  -2   32.65    1.58
   0 -12  -2   36.93    2.18
 -12  12   3    3.10    0.68
 -12   0   3    2.81    0.75
   0 -12   3    2.11    1.07
  12 -12   3    1.86    0.84
 -12   0   3    2.04    0.46
   0  12  -3    2.46    0.62
 -12   0  -3    1.96    1.29
  12   0  -3   -0.27    1.28
   0 -12  -3    3.15    1.16
   0  12  -3    2.27    1.19
 -12  12  -3    3.32    0.99
  12 -12  -3    3.43    0.84
 -12   0  -3    1.88    0.50
  12 -12  -3    2.54    0.78
   0 -12  -3    1.71    1.21
 -12   0   4   24.63    2.01
   0 -12   4   26.56    1.90
  12 -12   4   21.28    1.98
   0  12  -4   19.79    2.16
  12   0  -4   25.74    2.12
 -12   0  -4   32.18    2.35
  12 -12  -4   22.14    1.80
   0 -12  -4   26.00    1.93
   0  12  -4   27.74    2.03
 -12  12  -4   28.07    1.85
  12 -12  -4   20.89    1.50
   0 -12  -4   27.39    2.00
   0 -12   5    5.18    1.28
  12 -12   5    4.31    1.04
 -12   0   5    4.61    1.09
   0  12  -5    3.32    1.53
  12   0  -5    4.29    1.44
  12 -12  -5    3.33    0.99
   0 -12  -5    2.39    0.52
 -12   0  -5    5.12    1.03
   0  12  -5    5.73    0.85
 -12  12  -5    5.39    1.23
  12   0  -5    3.71    0.78
 -12   0  -5    2.65    1.08
  12 -12  -5    3.79    1.00
   0 -12  -5    1.39    1.39
   0 -12   6   16.64    1.83
  12 -12   6   15.11    1.56
 -12   0   6    9.36    1.86
  12   0   6   10.82    2.05
   0  12  -6   20.50    2.62
  12   0  -6   15.95    1.90
  12 -12  -6   17.22    1.74
   0  12  -6   18.11    1.95
 -12  12  -6   15.56    1.85
  12   0  -6   15.98    2.07
 -12   0  -6   12.46    1.80
  12 -12  -6   14.48    1.52
   0 -12  -6   18.67    1.24
   0 -12   7    6.53    1.49
  12 -12   7    3.37    1.31
 -12   0   7    3.14    1.24
  12   0   7    5.04    1.63
   0  12  -7    4.37    2.05
  12   0  -7    4.37    1.60
  12 -12  -7    2.62    1.47
   0  12  -7    6.97    1.56
 -12  12  -7    5.02    1.48
  12   0  -7    5.64    1.44
 -12   0  -7    5.12    1.59
  12 -12  -7    3.78    1.25
   0 -12  -7    5.77    0.96
   0 -12   8    4.99    1.65
  12 -12   8    4.92    1.50
 -12   0   8    4.44    1.50
  12   0   8    6.25    2.17
   0  12  -8    7.77    1.86
  12   0  -8    6.38    1.79
  12 -12  -8    6.81    1.78
   0  12  -8    5.05    1.79
 -12  12  -8    7.28    1.71
  12   0  -8    7.08    1.72
 -12   0  -8    3.55    1.42
  12 -12  -8    6.02    1.41
   0 -12  -8    7.28    1.08
   0 -12   9    3.70    1.60
  12 -12   9    2.23    1.54
 -12   0   9    2.44    1.53
  12   0   9    3.51    2.31
   0  12  -9   -0.22    1.51
  12   0  -9    1.61    1.74
  12 -12  -9    2.70    1.84
   0  12  -9    3.40    1.65
 -12  12  -9    3.64    1.66
  12   0  -9    3.12    1.71
 -12   0  -9    1.70    1.44
  12 -12  -9    3.13    1.40
   0 -12  -9    3.18    1.06
   0 -12  10    2.18    1.70
  12 -12  10    1.24    1.64
 -12   0  10    2.53    2.23
  12   0  10    1.00    2.59
   0  12 -10    2.24    1.53
  12   0 -10    3.70    1.16
  12 -12 -10    2.17    2.08
   0  12 -10    1.24    1.79
 -12  12 -10    2.07    1.80
  12   0 -10    0.40    1.90
 -12   0 -10    2.63    1.57
  12 -12 -10    0.93    1.48
   0 -12 -10    3.22    1.82
   0 -12  11    4.23    1.28
  12 -12  11    2.66    1.94
 -12   0  11    3.64    2.04
  12   0  11    6.67    3.01
   0  12 -11    0.50    2.00
  12   0 -11    4.01    2.14
  12 -12 -11    3.59    2.51
   0  12 -11    2.55    2.07
 -12  12 -11    3.61    2.14
  12   0 -11    4.73    2.50
 -12   0 -11    5.11    2.48
  12 -12 -11    3.34    1.73
   0 -12 -11    3.54    2.08
 -12  -1   0   10.00    1.37
 -13  12   0    5.62    0.92
  13 -12   0    6.40    0.80
  12 -13   0    9.04    0.95
 -13  12   1    9.51    0.89
 -12  -1   1    9.09    1.45
 -12  13   1    8.00    0.71
   1 -13   1    9.71    0.81
  -1 -12   1   10.96    1.23
  12 -13   1    8.38    0.99
  13 -12   1    8.96    0.88
 -12  -1  -1   11.63    1.46
 -13  12  -1    8.17    1.08
 -12  13  -1    7.29    0.85
  12 -13  -1    9.99    1.00
  -1 -12  -1   10.93    1.26
  13 -12  -1    9.09    0.84
 -12  13   2    6.54    0.71
 -13  12   2    6.94    0.87
 -13   1   2    7.13    1.47
 -12  -1   2    8.31    0.88
   1 -13   2    8.97    1.28
  -1 -12   2    7.51    1.22
  12 -13   2    6.94    0.99
  13 -12   2    7.52    0.87
 -13   1  -2    8.88    0.96
 -12  -1  -2    7.20    1.46
 -13  12  -2    7.66    1.13
 -12  13  -2    5.37    0.97
  13  -1  -2    7.74    1.47
  12   1  -2    6.90    1.44
  13 -12  -2    7.25    0.84
  12 -13  -2    6.94    1.00
  -1 -12  -2    8.30    1.25
  13 -12  -2    6.86    0.87
  12 -13  -2    7.34    1.01
   1 -13  -2    9.21    0.95
  -1 -12  -2    7.88    1.37
 -13  12   3    2.00    1.00
 -13   1   3    0.92    1.29
 -12  -1   3    0.49    1.21
   1 -13   3    1.30    1.10
  -1 -12   3    0.10    1.03
  12 -13   3    2.02    0.86
  13 -12   3    1.10    0.78
 -12  -1   3    1.35    0.57
  -1 -12  -3    1.50    0.34
  -1  13  -3    0.87    0.51
   1  12  -3    0.31    0.81
 -13   1  -3    1.31    0.82
 -12  -1  -3    0.56    1.27
  12   1  -3    0.87    1.25
  13  -1  -3    2.19    1.27
 -13  12  -3    2.32    1.04
  -1  13  -3    1.74    1.22
   1 -13  -3    2.38    1.16
 -13  12  -3    1.55    0.94
 -12  13  -3    1.17    1.04
  -1 -12  -3    1.24    1.10
   1  12  -3    0.74    1.17
  13 -12  -3    2.18    0.73
 -12  -1  -3    1.34    0.35
  12 -13  -3    1.66    0.89
 -12  -1  -3    1.57    0.58
  13 -12  -3    1.40    0.75
  12 -13  -3    1.65    0.86
  -1 -12  -3    2.66    1.23
   1 -13  -3    3.08    1.28
 -13   1   4    3.91    0.82
 -12  -1   4    1.98    1.29
   1 -13   4    2.18    1.18
  -1 -12   4    3.78    1.14
  12 -13   4    2.23    0.96
  13 -12   4    2.80    0.90
 -12  -1   4    1.80    0.82
 -13   1   4    2.09    0.58
  -1  13  -4    3.78    0.90
   1  12  -4    2.48    1.22
  -1 -12  -4    1.50    0.41
  13  -1  -4    2.11    1.31
  12   1  -4    2.64    1.34
 -13   1  -4    5.34    0.92
  13 -12  -4    3.50    0.89
 -12  -1  -4    2.61    1.45
  12 -13  -4    1.39    0.67
  13 -12  -4    2.89    0.91
  12 -13  -4    2.17    1.05
   1 -13  -4    1.78    1.24
  -1 -12  -4    3.53    1.18
  -1  13  -4    4.25    1.32
 -13  12  -4    3.00    1.06
 -12  13  -4    2.16    1.16
   1  12  -4    3.95    1.24
  12   1  -4    1.37    0.59
  13  -1  -4    1.52    0.43
 -13   1  -4    1.52    0.62
 -12  -1  -4    1.80    0.85
  13 -12  -4    2.74    0.85
  12 -13  -4    1.69    0.94
  -1 -12  -4    2.83    1.26
   1 -13  -4    3.00    1.36
   1 -13   5    5.08    1.31
  -1 -12   5    1.58    1.26
  12 -13   5    3.12    1.09
  13 -12   5    3.16    1.03
 -12  -1   5    1.71    1.11
 -13   1   5    2.18    0.75
  -1  13  -5    1.96    1.51
   1  12  -5    2.40    1.87
  13  -1  -5    3.70    0.91
  12   1  -5    3.98    1.47
  13 -12  -5    3.37    1.11
  12 -13  -5    2.62    0.84
 -13   1  -5    3.58    1.65
 -12  -1  -5    5.81    1.59
  -1  13  -5    5.66    1.42
 -13  12  -5    4.01    1.21
 -12  13  -5    3.00    1.31
   1  12  -5    5.69    1.37
  12   1  -5    2.78    0.98
  13  -1  -5    2.83    0.92
 -13   1  -5    2.30    0.98
 -12  -1  -5    2.50    0.85
  13 -12  -5    2.94    0.95
  12 -13  -5    3.61    1.02
   1 -13  -5    5.28    1.42
  -1 -12  -5    4.75    0.85
   1 -13   6    2.09    0.84
  -1 -12   6    3.64    1.29
  12 -13   6    1.95    1.14
  13 -12   6    2.53    1.11
 -12  -1   6    2.11    1.31
 -13   1   6    0.90    1.24
  13  -1   6    0.29    1.38
  -1  13  -6    3.94    1.86
   1  12  -6    2.56    2.50
  13  -1  -6    0.67    1.43
  12   1  -6    3.29    0.90
  13 -12  -6    2.30    1.25
  12 -13  -6    4.35    1.02
  -1  13  -6    3.35    1.42
   1  12  -6    2.83    1.41
 -13  12  -6    1.86    1.30
 -12  13  -6    3.26    1.37
  12   1  -6    2.82    1.03
  13  -1  -6    1.16    1.41
 -13   1  -6    1.29    0.90
 -12  -1  -6    1.36    1.28
  13 -12  -6    0.93    1.04
  12 -13  -6    2.08    1.12
   1 -13  -6    3.04    1.41
  -1 -12  -6    1.97    1.34
   1 -13   7    1.87    0.93
  -1 -12   7    1.97    1.38
  12 -13   7    2.81    1.27
  13 -12   7    1.78    1.24
 -12  -1   7    2.89    1.15
 -13   1   7    1.84    1.49
  13  -1   7    1.85    2.03
  12   1   7    0.92    1.38
  -1  13  -7   -2.31    2.69
   1  12  -7    3.89    2.15
  12   1  -7    3.11    1.54
  13  -1  -7    2.78    1.53
  13 -12  -7    1.92    1.44
  12 -13  -7    1.46    1.36
  -1  13  -7    2.91    0.97
   1  12  -7    3.99    1.50
 -13  12  -7    0.54    1.43
 -12  13  -7    5.29    1.44
  12   1  -7    1.46    1.39
  13  -1  -7    3.29    1.84
 -13   1  -7    2.95    1.08
 -12  -1  -7    1.20    1.50
  13 -12  -7    2.81    1.14
  12 -13  -7    2.12    1.19
   1 -13  -7    0.38    1.49
  -1 -12  -7    3.02    1.41
   1 -13   8    0.75    0.82
  -1 -12   8    0.18    1.32
  12 -13   8   -1.11    1.23
  13 -12   8   -0.21    1.22
 -12  -1   8   -0.51    1.18
 -13   1   8    1.86    1.54
  13  -1   8    1.00    1.74
  12   1   8    0.35    2.21
  -1  13  -8   -0.29    1.51
   1  12  -8   -1.30    1.88
  13  -1  -8    0.98    1.47
  12   1  -8    0.29    0.87
  12 -13  -8   -0.19    1.41
  13 -12  -8    2.78    1.46
  -1  13  -8    0.41    1.45
 -13  12  -8    0.35    1.38
 -12  13  -8   -1.82    1.43
   1  12  -8    0.13    1.41
  12   1  -8    2.44    2.00
  13  -1  -8   -0.58    1.46
 -13   1  -8   -0.41    1.11
 -12  -1  -8    0.82    1.13
  13 -12  -8   -0.13    1.12
  12 -13  -8   -0.85    1.15
   1 -13  -8   -2.50    1.48
  -1 -12  -8    1.16    1.35
   1 -13   9    1.50    0.99
  -1 -12   9    1.81    1.54
  12 -13   9    0.81    1.47
  13 -12   9    1.40    1.44
 -12  -1   9    1.86    1.91
 -13   1   9    0.96    1.94
  13  -1   9   -1.76    2.28
  12   1   9    4.11    2.27
  -1  13  -9    0.46    1.44
   1  12  -9    1.07    1.76
  13  -1  -9    2.30    1.67
  13 -12  -9    1.54    1.80
  12   1  -9    1.42    1.65
  12 -13  -9    2.50    1.77
  -1  13  -9   -0.76    1.67
   1  12  -9   -0.27    1.00
 -13  12  -9    1.31    1.63
 -12  13  -9    1.59    1.65
  12   1  -9   -1.36    1.81
  13  -1  -9    3.68    2.22
 -13   1  -9    2.29    1.36
 -12  -1  -9   -0.51    1.35
  13 -12  -9    1.93    1.31
  12 -13  -9    1.01    1.33
   1 -13  -9    0.06    1.67
  -1 -12  -9    0.76    1.60
   1 -13  10    1.80    1.69
  -1 -12  10   -1.16    1.61
  12 -13  10   -1.18    1.56
  13 -12  10    2.12    1.56
 -12  -1  10   -2.54    1.59
 -13   1  10   -0.33    1.58
  13  -1  10    3.12    3.45
  12   1  10   -1.72    2.75
  -1  13 -10    2.67    1.52
   1  12 -10   -0.78    1.58
  12   1 -10    0.98    1.75
  12 -13 -10   -0.83    1.95
  13  -1 -10    0.55    1.80
  13 -12 -10    1.43    1.99
  -1  13 -10    2.55    1.68
   1  12 -10   -0.06    1.72
 -13  12 -10    2.93    1.70
 -12  13 -10   -0.88    1.74
  12   1 -10    0.48    1.84
  13  -1 -10   -0.32    2.50
 -13   1 -10   -0.88    1.49
 -12  -1 -10    0.23    1.47
  13 -12 -10    1.39    1.34
  12 -13 -10    0.08    1.41
   1 -13 -10    1.32    1.74
  -1 -12 -10   -0.37    1.03
 -12  -2   0   18.72    1.14
 -14  12   0   16.93    1.88
  -2 -12   0   24.51    1.58
  12 -14   0   22.94    1.42
 -12  14   1    9.07    0.91
 -14  12   1    9.85    1.03
 -12  -2   1    9.51    1.45
  12 -14   1   10.39    1.13
 -12  -2  -1   12.16    1.52
 -14  12  -1    9.64    1.24
  12 -14  -1   12.53    1.16
  14 -12  -1    9.81    0.85
 -12  14   2    3.11    0.74
 -14   2   2    1.01    1.41
 -14  12   2    3.43    0.86
 -12  -2   2    4.12    1.21
  12 -14   2    4.12    0.97
  14 -12   2    2.78    0.75
 -12  -2   2    2.28    0.54
  -2 -12  -2    2.81    0.52
 -12  -2  -2    3.83    1.28
 -14   2  -2    1.02    1.48
 -14  12  -2    2.83    1.08
 -12  14  -2    2.23    0.72
   2  12  -2    2.14    0.68
  12   2  -2    2.03    1.31
  -2 -12  -2    4.23    1.09
  12 -14  -2    5.46    1.00
  14 -12  -2    3.44    0.65
 -12  -2  -2    2.25    0.53
  14 -12  -2    4.59    0.94
  -2 -12  -2    4.95    1.25
  12 -14  -2    3.04    0.98
   2 -14  -2    3.83    0.86
 -14  12   3    5.14    0.93
 -14   2   3    6.32    1.46
 -12  -2   3    5.21    1.36
   2 -14   3    7.05    1.33
  -2 -12   3    5.35    1.16
  12 -14   3    5.84    1.07
  14 -12   3    5.30    1.18
 -12  -2   3    4.12    0.78
   2  12  -3    2.99    0.98
 -12  -2  -3    6.74    1.47
 -14   2  -3    3.78    1.65
 -14  12  -3    4.96    1.33
  14  -2  -3    5.30    1.48
  12   2  -3    6.51    1.48
 -12  14  -3    4.24    0.99
   2  12  -3    5.92    1.33
 -14  12  -3    6.91    1.02
  -2  14  -3    4.79    1.46
 -12  14  -3    8.07    1.30
  -2 -12  -3    6.27    1.25
  14 -12  -3    4.82    0.78
   2 -14  -3    6.40    1.37
  12 -14  -3    6.21    1.47
 -12  -2  -3    3.69    0.82
  14 -12  -3    4.35    0.82
  -2 -12  -3    6.37    1.37
  12 -14  -3    5.96    1.11
   2 -14  -3    5.51    1.53
 -12  -2   4    4.06    1.32
 -14   2   4    4.46    1.42
  -2 -12   4    2.32    1.14
   2 -14   4    3.79    1.31
  12 -14   4    3.74    1.08
  14 -12   4    2.78    0.94
 -12  -2   4    2.25    0.92
  -2  14  -4    2.19    0.85
   2  12  -4    2.35    0.97
  14  -2  -4    3.23    1.44
 -12  -2  -4    5.33    1.48
  12   2  -4    4.16    1.43
 -14   2  -4    5.55    1.64
  14 -12  -4    4.04    1.03
  -2 -12  -4    4.02    1.27
   2  12  -4    5.30    1.30
  14 -12  -4    3.20    0.86
  -2  14  -4    5.77    1.44
   2 -14  -4    3.62    1.38
  12 -14  -4    4.26    1.18
 -14  12  -4    4.37    1.09
  12   2  -4    1.73    0.64
 -12  14  -4    3.72    1.27
 -12  -2  -4    1.63    0.98
  14 -12  -4    3.71    1.12
  12 -14  -4    3.65    1.04
  -2 -12  -4    3.37    1.28
   2 -14  -4    5.69    1.53
 -14   2   5   13.98    1.19
  -2 -12   5   12.24    1.60
   2 -14   5   15.32    1.79
  12 -14   5   10.92    1.44
  14 -12   5    8.71    1.32
  -2  14  -5   10.00    1.97
   2  12  -5    9.70    2.29
  14  -2  -5   11.79    1.86
  12   2  -5   12.37    1.25
 -14   2  -5   15.37    2.24
  14 -12  -5   11.89    1.57
 -12  -2  -5   14.35    2.12
  -2 -12  -5   12.11    1.12
   2 -14  -5   14.45    1.79
   2  12  -5   13.72    1.79
  -2  14  -5   14.41    1.88
 -14  12  -5   13.29    1.60
 -12  14  -5   12.37    1.74
  14 -12  -5    8.07    1.24
  12 -14  -5    9.61    1.41
  -2 -12  -5   12.30    1.71
   2 -14  -5   13.77    1.91
   2 -14   6    2.18    1.40
  -2 -12   6    2.73    1.28
  12 -14   6    3.18    1.17
  14 -12   6    1.07    1.11
 -12  -2   6    1.44    1.33
 -14   2   6    2.37    1.11
  14  -2   6    1.51    1.22
  -2  14  -6    0.70    1.97
   2  12  -6    5.35    2.36
  12   2  -6    0.80    1.54
  14  -2  -6    3.08    1.49
  14 -12  -6    0.55    1.31
  12 -14  -6    0.67    1.09
 -12  -2  -6    3.90    1.74
   2  12  -6    2.12    1.40
  -2  14  -6    2.28    0.93
 -12  14  -6    1.64    1.40
 -14  12  -6    3.52    1.26
  12   2  -6    1.28    1.36
  14  -2  -6    1.75    1.34
 -14   2  -6    1.22    0.82
 -12  -2  -6    1.39    1.32
  14 -12  -6    1.05    0.99
  12 -14  -6    1.33    1.12
  -2 -12  -6    2.19    1.31
   2 -14  -6    1.98    1.48
   2 -14   7    5.60    1.62
  -2 -12   7    6.34    1.51
  12 -14   7    4.39    1.41
  14 -12   7    4.74    1.40
 -12  -2   7    4.50    1.29
 -14   2   7    3.47    1.19
  14  -2   7    3.64    2.15
  -2  14  -7    6.56    2.34
   2  12  -7    4.64    2.53
  14  -2  -7    2.92    1.67
  12   2  -7    6.28    1.73
  14 -12  -7    5.91    1.69
  12 -14  -7    2.93    1.20
   2  12  -7    4.83    1.66
  -2  14  -7    6.81    1.71
 -12  14  -7    6.09    1.06
 -14  12  -7    5.64    1.55
  12   2  -7    4.14    1.61
  14  -2  -7    5.13    2.07
 -14   2  -7    3.00    1.47
 -12  -2  -7    1.25    1.30
  14 -12  -7    2.94    1.23
  12 -14  -7    6.19    1.35
  -2 -12  -7    5.34    1.53
   2 -14  -7    5.65    1.70
   2 -14   8    2.57    1.57
  -2 -12   8    0.36    1.46
  12 -14   8    0.53    1.36
  14 -12   8    0.39    1.35
 -12  -2   8    0.70    1.71
 -14   2   8    2.41    1.26
  14  -2   8    3.78    1.88
  -2  14  -8    1.70    1.71
   2  12  -8    0.49    2.40
  12   2  -8    2.06    1.66
  14  -2  -8    1.88    1.61
  14 -12  -8    2.54    1.67
  12 -14  -8    2.44    1.74
   2  12  -8    2.04    1.59
  -2  14  -8    0.84    1.01
 -14  12  -8    1.18    1.51
 -12  14  -8    3.18    1.60
  12   2  -8    4.09    2.30
  14  -2  -8   -0.51    1.64
 -14   2  -8    3.31    1.56
 -12  -2  -8    0.26    1.25
  14 -12  -8    1.14    1.20
  12 -14  -8   -0.04    1.30
  -2 -12  -8    2.48    1.48
   2 -14  -8    1.49    1.66
  -2 -12   9    4.39    1.67
   2 -14   9    1.64    1.76
  12 -14   9    3.79    1.58
  14 -12   9    3.10    1.61
 -12  -2   9    2.17    1.57
 -14   2   9    1.93    1.54
  14  -2   9    5.00    3.36
  12   2   9    2.72    2.40
  -2  14  -9    1.15    1.54
   2  12  -9    3.31    2.33
  14  -2  -9    3.78    1.85
  12   2  -9    2.88    1.84
  12 -14  -9    2.26    1.91
  14 -12  -9    2.10    2.02
  -2  14  -9    2.50    1.85
   2  12  -9    4.14    1.78
 -12  14  -9    1.84    1.85
 -14  12  -9    3.02    1.80
  12   2  -9    1.50    2.20
  14  -2  -9   -0.09    2.43
 -14   2  -9    3.42    1.46
 -12  -2  -9    2.65    1.49
  14 -12  -9    1.49    1.38
  12 -14  -9    2.74    1.48
  -2 -12  -9    1.39    1.67
   2 -14  -9    5.11    1.86
  -2 -12  10    2.50    1.71
   2 -14  10    0.21    1.77
  12 -14  10    0.72    1.64
  14 -12  10    3.57    2.21
 -12  -2  10   -0.39    1.66
 -14   2  10    2.27    1.65
  14  -2  10    6.95    2.80
  12   2  10   -0.16    2.93
  -2  14 -10    1.38    1.67
   2  12 -10    1.52    1.87
  14  -2 -10    1.95    1.18
  14 -12 -10    2.84    2.12
  12   2 -10   -0.43    1.86
  12 -14 -10    2.52    2.10
   2  12 -10    1.26    1.12
  -2  14 -10   -0.06    1.83
 -12  14 -10   -1.17    1.89
 -14  12 -10    1.72    1.86
  12   2 -10   -1.70    2.24
  14  -2 -10    1.10    2.07
 -14   2 -10   -0.36    1.51
 -12  -2 -10    1.83    1.52
  14 -12 -10   -0.83    1.47
  12 -14 -10    0.52    1.51
  -2 -12 -10    1.35    1.67
   2 -14 -10   -0.91    1.85
 -12  15   0    4.56    0.55
 -15  12   0    7.40    1.11
 -12  -3   0    7.26    0.56
 -12  -3   0    6.09    0.57
  15 -12   0    6.44    0.68
 -12  15   1    2.29    0.60
 -12  -3   1    1.42    1.13
 -15  12   1    1.82    0.88
  12 -15   1    2.26    0.94
  15 -12   1    1.45    0.63
 -12  -3   1    1.45    0.50
 -12  -3   1    1.44    0.36
 -15  12  -1    1.03    1.04
 -12  15  -1    1.17    0.51
  -3 -12  -1    4.13    0.99
 -12  -3  -1    1.29    0.44
 -12  -3  -1    1.78    0.54
  15 -12  -1    1.88    0.60
 -12  -3   2   -1.05    1.07
 -15  12   2    0.01    1.11
 -15   3   2    0.57    1.28
  -3 -12   2    0.57    0.94
  12 -15   2    0.46    0.90
  15 -12   2   -0.22    0.62
 -12  -3   2    0.98    0.60
  -3 -12  -2   -0.36    0.50
 -12  -3  -2   -1.59    1.13
 -15   3  -2   -0.70    1.36
 -15  12  -2   -0.79    1.03
 -12  15  -2    0.23    0.55
   3  12  -2    0.81    0.50
  12   3  -2   -1.14    1.18
  -3 -12  -2    0.35    0.95
  12 -15  -2    1.12    0.92
 -12  -3  -2    0.27    0.39
 -12  -3  -2    0.57    0.61
  15 -12  -2    0.33    0.77
  -3 -12  -2    1.18    1.06
  12 -15  -2   -1.08    0.97
   3 -15  -2    0.86    0.79
 -12  -3   3    1.95    1.23
 -15  12   3    2.78    0.88
 -15   3   3    4.36    1.37
   3 -15   3    2.72    1.24
  -3 -12   3    1.93    1.01
  12 -15   3    3.43    1.02
  15 -12   3    3.06    0.78
 -12  -3   3    1.62    0.82
  -3 -12  -3    1.45    0.52
  -3  15  -3    1.36    0.43
 -12  -3  -3    5.02    1.30
 -15   3  -3    4.99    1.54
   3  12  -3    1.52    0.70
 -15  12  -3    1.20    1.26
  12   3  -3    3.03    1.37
 -12  15  -3    1.44    0.79
  15  -3  -3    3.36    1.35
   3  12  -3    2.37    1.19
 -12  15  -3    1.53    1.23
  -3  15  -3    2.69    1.38
  -3 -12  -3    1.89    1.10
  12 -15  -3    2.27    1.11
   3 -15  -3    0.94    1.30
  15 -12  -3    2.06    0.82
 -12  -3  -3    1.07    0.49
 -12  -3  -3    1.50    0.80
  15 -12  -3    2.79    0.68
  -3 -12  -3    0.86    1.20
  12 -15  -3    3.61    1.08
   3 -15  -3    1.58    1.48
 -15  12   4    1.24    0.88
 -12  -3   4   -0.15    1.21
 -15   3   4    1.89    1.38
   3 -15   4    2.27    1.26
  -3 -12   4    2.30    1.07
  12 -15   4    2.86    1.06
  15 -12   4    0.75    1.14
 -12  -3   4    0.13    0.98
  -3  15  -4    0.09    0.68
  -3 -12  -4    0.38    0.55
   3  12  -4    1.08    1.19
 -15   3  -4    1.34    1.59
 -12  -3  -4    3.00    1.36
  12   3  -4    1.68    0.86
  15  -3  -4   -0.20    1.34
 -15  12  -4    2.18    1.30
   3  12  -4    2.29    1.25
  -3 -12  -4    2.31    1.15
 -15  12  -4    2.81    0.95
  15 -12  -4    0.31    0.68
 -12  -3  -4    1.19    0.59
  12   3  -4    0.65    0.61
 -12  15  -4    1.68    1.28
  12 -15  -4    2.14    1.12
  -3  15  -4    1.99    1.40
   3 -15  -4    3.30    1.32
 -12  -3  -4    1.27    0.95
  15 -12  -4    1.60    0.76
  -3 -12  -4    1.58    1.16
  12 -15  -4    1.48    1.01
   3 -15  -4    2.01    1.48
 -15   3   5    2.52    1.37
   3 -15   5    0.55    1.38
  -3 -12   5    1.84    1.18
  12 -15   5    1.43    1.12
  15 -12   5    1.09    1.00
 -12  -3   5    1.24    0.86
  -3  15  -5   -0.97    1.73
   3  12  -5    2.92    1.69
  12   3  -5    2.19    1.50
  15  -3  -5    2.04    0.88
 -15   3  -5    2.02    1.74
  15 -12  -5    0.71    1.63
 -12  -3  -5    1.18    1.52
  -3 -12  -5    3.14    1.28
  15 -12  -5    1.47    0.85
  12 -15  -5    1.62    1.27
   3 -15  -5    1.01    1.41
   3  12  -5    2.34    1.33
 -15  12  -5    3.01    1.13
 -12  15  -5    2.11    1.39
  -3  15  -5    2.66    1.46
  12   3  -5    1.53    0.69
  15  -3  -5    0.98    0.53
 -15   3  -5   -0.07    0.68
 -12  -3  -5    0.89    0.89
  15 -12  -5    0.12    1.17
  12 -15  -5    1.82    1.10
  -3 -12  -5    2.48    1.20
   3 -15  -5    2.51    1.47
   3 -15   6    2.02    1.40
  -3 -12   6   -0.17    1.22
  12 -15   6    1.00    0.73
  15 -12   6    0.98    1.10
 -12  -3   6    1.53    0.95
 -15   3   6   -0.06    0.96
  15  -3   6    0.57    0.80
  -3  15  -6   -0.39    1.92
   3  12  -6    2.83    2.24
  15  -3  -6    1.38    1.40
  12   3  -6    1.97    1.54
  -3 -12  -6   -0.11    0.58
  15 -12  -6    2.23    1.34
 -12  -3  -6   -0.13    1.69
  12 -15  -6   -0.02    0.63
 -15   3  -6    1.52    1.76
 -15  12  -6    1.54    1.23
   3  12  -6    1.78    1.37
 -12  15  -6    2.45    1.40
  -3  15  -6    2.16    1.43
  12   3  -6    0.23    1.28
  15  -3  -6    1.04    1.17
 -15   3  -6    1.05    0.73
 -12  -3  -6   -0.06    1.31
  15 -12  -6   -0.59    1.26
  -3 -12  -6   -0.08    1.23
  12 -15  -6    0.83    1.14
   3 -15  -6    2.68    1.47
   3 -15   7    0.88    1.45
  -3 -12   7    1.35    1.29
  12 -15   7   -1.32    0.77
  15 -12   7    1.18    1.22
 -12  -3   7   -2.01    1.48
 -15   3   7    0.21    1.04
  15  -3   7    1.57    1.28
  -3  15  -7    4.40    2.06
   3  12  -7    2.11    2.14
  12   3  -7    0.22    0.95
  15  -3  -7    1.35    1.48
  15 -12  -7   -0.24    1.50
  12 -15  -7    0.66    0.78
  -3 -12  -7   -0.29    0.72
 -12  -3  -7   -0.05    1.13
   3  12  -7    0.84    1.45
 -12  15  -7    1.76    1.48
  -3  15  -7    2.78    1.52
 -15  12  -7    2.06    1.35
  12   3  -7   -0.20    1.77
  15  -3  -7    0.61    1.74
 -15   3  -7    0.91    1.25
 -12  -3  -7   -0.98    1.10
  15 -12  -7    1.18    1.38
  -3 -12  -7    0.42    1.32
  12 -15  -7    0.19    1.19
   3 -15  -7    1.62    1.46
   3 -15   8    1.64    1.58
  -3 -12   8   -1.84    1.44
  12 -15   8    0.49    1.38
  15 -12   8    0.29    1.39
 -12  -3   8    0.11    1.29
  15  -3   8    1.36    2.42
 -15   3   8    0.87    1.62
  -3  15  -8   -1.19    1.79
   3  12  -8    3.29    2.53
  15  -3  -8    2.19    1.59
  12   3  -8    1.12    1.67
  15 -12  -8    1.60    1.71
  12 -15  -8    1.88    1.03
   3  12  -8   -0.62    1.63
 -12  15  -8    1.08    1.02
  -3  15  -8    1.57    1.67
 -15  12  -8   -0.11    1.49
  12   3  -8    5.53    2.35
  15  -3  -8   -1.60    2.31
 -15   3  -8    0.43    1.18
 -12  -3  -8    0.76    1.66
  15 -12  -8    0.54    1.14
  12 -15  -8    0.36    1.31
  -3 -12  -8   -0.85    1.41
   3 -15  -8    0.43    1.58
   3 -15   9   -1.30    1.70
  -3 -12   9   -0.27    1.54
  12 -15   9    2.67    1.47
  15 -12   9    2.41    1.52
 -12  -3   9   -1.04    1.43
  15  -3   9    7.75    3.12
 -15   3   9    0.67    1.44
  -3  15  -9    1.58    1.41
   3  12  -9    1.82    2.53
  12   3  -9   -0.68    1.80
  15  -3  -9    2.83    1.77
  15 -12  -9    0.05    1.94
  12 -15  -9    1.53    1.71
   3  12  -9    0.19    1.73
 -12  15  -9   -2.92    1.75
  -3  15  -9   -0.08    1.07
 -15  12  -9   -0.73    1.70
  12   3  -9   -0.35    2.12
  15  -3  -9   -1.06    1.79
 -15   3  -9    2.96    1.81
 -12  -3  -9   -0.78    1.35
  15 -12  -9    0.48    1.28
  12 -15  -9   -0.72    1.39
  -3 -12  -9   -0.05    1.51
   3 -15  -9    2.10    1.72
 -15   3  10    2.58    1.73
  15  -3  10    2.31    2.94
  -3  15 -10    0.27    1.91
   3  12 -10   -0.26    2.21
  12 -15 -10    0.38    1.66
  -3  15 -10    1.67    1.89
   3  12 -10   -2.15    1.92
 -12  15 -10    0.61    1.99
 -15  12 -10    4.51    1.90
  12   3 -10   -0.03    2.49
  15  -3 -10    3.29    2.35
 -15   3 -10   -1.11    2.12
 -12  -4   0   11.44    1.36
 -16  12   0    9.51    1.31
 -12  -4   0    7.20    0.66
  16 -12   0    7.19    0.69
 -12  16   1    0.90    0.51
 -12  -4   1   -1.62    1.16
 -16  12   1    2.76    0.95
 -12  -4   1    1.21    0.45
  -4 -12  -1    0.17    0.47
 -12  16  -1    0.33    0.56
 -16  12  -1    0.04    1.14
 -12  -4  -1    1.23    0.51
 -12  -4  -1    1.43    0.63
  16 -12  -1    0.88    0.53
  -4 -12  -1    1.65    1.09
 -12  -4   2    7.47    0.85
 -16   4   2    7.70    1.64
 -16  12   2    6.43    1.13
  16 -12   2    6.17    0.81
 -12  -4   2    5.96    0.92
  -4 -12  -2    4.73    0.72
 -12  -4  -2    4.44    1.40
 -16   4  -2    6.83    1.77
 -16  12  -2    6.18    1.44
  -4 -12  -2    7.52    1.18
 -12  -4  -2    5.53    0.74
  16 -12  -2    4.55    0.95
  -4 -12  -2    6.48    1.29
   4 -16  -2    9.47    1.69
 -12  -4   3    1.28    1.15
 -16   4   3    0.21    1.38
 -16  12   3    0.57    0.94
   4 -16   3    0.89    1.29
  12 -16   3    1.78    1.02
  -4 -12   3    0.41    0.99
  16 -12   3    0.21    1.02
 -12  -4   3    0.60    0.87
  -4 -12  -3    0.85    0.57
 -12  -4  -3    1.80    1.22
 -16   4  -3   -2.02    1.59
   4  12  -3    1.24    0.71
 -16  12  -3    2.02    1.30
  12   4  -3    1.79    1.36
  16  -4  -3    1.19    0.83
   4 -16  -3    1.47    1.34
  -4 -12  -3    0.16    1.05
  12 -16  -3    2.91    1.14
 -12  -4  -3    0.77    0.54
  16 -12  -3    0.75    0.52
 -12  -4  -3    0.73    0.94
  16 -12  -3    1.30    0.66
  -4 -12  -3   -0.84    1.13
  12 -16  -3   -0.05    1.15
   4 -16  -3    0.07    1.46
 -16  12   4    3.10    1.08
 -16   4   4    5.88    1.57
   4 -16   4    4.51    1.44
  -4 -12   4    3.84    1.20
  12 -16   4    4.75    1.26
  16 -12   4    2.69    1.36
 -12  -4   4    3.30    1.16
  -4  16  -4    1.38    0.84
   4  12  -4    2.32    1.40
 -12  -4  -4    3.43    1.49
 -16   4  -4    2.55    1.86
  12   4  -4    5.97    1.58
  16  -4  -4    6.74    1.58
 -16  12  -4    6.09    1.60
 -16  12  -4    3.10    0.94
  -4  16  -4    4.49    1.60
   4  12  -4    5.31    1.39
 -12  16  -4    4.71    1.49
  -4 -12  -4    3.52    1.27
  16 -12  -4    2.45    0.88
   4 -16  -4    4.48    1.54
  12 -16  -4    4.00    1.34
 -12  -4  -4    2.68    1.24
  16 -12  -4    2.98    0.87
  -4 -12  -4    4.85    1.24
  12 -16  -4    3.33    1.26
   4 -16  -4    5.74    1.68
 -16   4   5    0.23    1.42
   4 -16   5   -1.02    1.38
  -4 -12   5    0.77    1.10
  12 -16   5    1.29    1.14
  16 -12   5   -0.30    1.03
 -12  -4   5   -1.59    1.22
  -4  16  -5   -0.76    1.53
  -4 -12  -5    0.02    0.99
   4  12  -5   -0.05    1.23
  16  -4  -5    2.08    1.40
 -12  -4  -5    2.13    1.45
  12   4  -5   -1.25    1.52
 -16   4  -5    0.93    1.72
  16 -12  -5   -0.59    1.27
 -16  12  -5    1.79    1.52
 -12  -4  -5    1.47    0.60
  -4 -12  -5    1.03    1.22
   4  12  -5    1.07    1.29
  -4  16  -5   -0.18    1.52
   4 -16  -5    0.29    1.42
  16 -12  -5    0.52    0.70
  12 -16  -5   -0.17    1.30
 -16  12  -5    0.11    1.07
  12   4  -5    0.28    0.68
 -12  16  -5    0.30    1.39
 -12  -4  -5    0.95    0.88
  16 -12  -5    0.58    0.84
  -4 -12  -5    1.07    1.14
  12 -16  -5    0.80    1.17
   4 -16  -5    1.44    1.49
   4 -16   6    0.56    1.60
  -4 -12   6    3.23    1.33
  12 -16   6    1.97    1.35
  16 -12   6    1.91    1.73
  16  -4   6    1.62    1.01
  -4  16  -6    0.30    2.67
   4  12  -6    3.74    2.44
  12   4  -6    3.74    1.72
  16  -4  -6    2.66    1.58
  16 -12  -6    2.45    1.53
 -12  -4  -6    4.99    1.80
  -4 -12  -6    1.79    1.49
   4 -16  -6    5.74    1.59
  12 -16  -6    1.57    1.52
   4  12  -6    4.93    1.52
  -4  16  -6    5.92    1.66
 -12  16  -6    2.87    1.60
 -16  12  -6    1.25    1.81
  12   4  -6    2.20    1.41
 -16   4  -6    1.54    0.91
 -12  -4  -6    1.99    1.12
  16 -12  -6    1.90    1.06
  -4 -12  -6    2.60    1.32
  12 -16  -6    2.53    1.31
   4 -16  -6    1.32    1.71
   4 -16   7    1.32    1.47
  -4 -12   7   -0.29    1.27
  12 -16   7   -1.84    1.27
  16 -12   7   -0.38    1.75
 -12  -4   7   -0.50    1.48
  16  -4   7    0.14    1.21
  -4  16  -7    1.25    2.14
   4  12  -7    0.11    2.16
  12   4  -7   -0.35    1.67
  16  -4  -7    2.00    1.50
  16 -12  -7    0.03    1.54
  12 -16  -7    0.04    0.60
 -12  -4  -7    1.88    1.84
   4  12  -7   -0.09    1.50
  -4  16  -7    2.16    1.56
 -12  16  -7   -0.04    1.54
 -16  12  -7    0.03    1.34
  12   4  -7    1.43    1.76
 -16   4  -7   -0.62    0.98
 -12  -4  -7   -1.47    1.66
  16 -12  -7    0.56    1.02
  -4 -12  -7    0.33    1.25
  12 -16  -7   -0.61    1.25
   4 -16  -7   -1.12    1.52
   4 -16   8   -0.17    1.56
  -4 -12   8    4.21    1.40
  12 -16   8   -0.06    1.43
  16 -12   8    2.15    1.50
 -12  -4   8   -1.25    1.32
  16  -4   8    1.47    2.25
  -4  16  -8    2.03    1.95
   4  12  -8    4.60    2.62
  12   4  -8    0.79    1.74
  16  -4  -8   -0.20    1.63
  16 -12  -8   -0.30    1.73
  12 -16  -8   -0.19    0.78
 -12  -4  -8    1.04    1.31
   4  12  -8   -0.79    1.64
  -4  16  -8   -2.87    1.71
 -12  16  -8    1.08    1.65
 -16  12  -8    0.84    1.55
  12   4  -8    1.90    2.41
 -16   4  -8    0.50    1.69
 -12  -4  -8   -0.37    1.40
  16 -12  -8   -0.55    1.16
  -4 -12  -8   -0.21    1.36
  12 -16  -8   -1.30    1.34
   4 -16  -8   -2.27    1.69
   4 -16   9   -1.81    1.73
  -4 -12   9   -1.40    1.54
  12 -16   9    0.31    1.56
  16 -12   9    2.25    1.68
 -12  -4   9   -0.29    1.49
  16  -4   9    0.67    2.34
   4  12  -9   -0.76    2.79
  12   4  -9    1.56    1.88
  16  -4  -9    1.19    1.79
  16 -12  -9    1.93    1.99
  12 -16  -9   -0.21    1.04
   4  12  -9    1.83    1.81
  -4  16  -9    0.51    1.77
 -12  16  -9   -0.56    1.84
 -16  12  -9   -0.24    2.27
  12   4  -9   -0.22    2.33
 -16   4  -9    0.83    1.37
 -12  -4  -9    2.44    2.03
  16 -12  -9   -0.10    1.33
  -4 -12  -9   -0.67    1.47
  12 -16  -9    1.43    1.45
   4 -16  -9   -0.34    1.85
 -12  -5   0    4.34    1.25
 -17  12   0    5.44    1.27
  12 -17   0    3.77    0.77
 -12  -5   1    8.68    1.36
 -17  12   1    8.87    1.33
 -17   5   1   10.00    1.76
  -5 -12  -1    6.68    0.67
 -12  -5  -1    9.24    1.36
 -17  12  -1    6.39    1.48
  12 -17  -1    9.02    1.34
 -12  -5  -1    6.78    0.74
 -12  -5  -1    5.99    0.83
 -12  -5   2   -1.06    1.08
 -17   5   2   -0.57    1.42
 -17  12   2    1.52    1.01
  17 -12   2   -0.98    0.68
 -12  -5   2    0.44    0.87
  -5 -12  -2    0.35    0.63
 -12  -5  -2    0.69    1.14
 -17   5  -2   -1.47    1.51
 -12  17  -2    0.11    0.53
 -17  12  -2   -3.21    1.27
  12 -17  -2    0.65    0.67
  -5 -12  -2    1.73    0.95
  17 -12  -2    0.11    0.41
 -12  -5  -2    0.31    0.54
 -12  -5  -2    0.28    0.56
  17 -12  -2   -1.10    0.74
  -5 -12  -2    0.72    1.06
 -12  -5   3    5.30    1.32
 -17   5   3    5.15    1.64
 -17  12   3    4.22    1.20
   5 -17   3    6.86    1.52
  12 -17   3    5.29    1.29
  -5 -12   3    5.36    1.51
  17 -12   3    4.96    1.36
 -12  -5   3    4.34    1.14
  -5 -12  -3    3.55    0.75
 -12  -5  -3    6.17    1.42
 -17   5  -3    6.22    1.93
 -17  12  -3    5.23    1.60
   5  12  -3    1.60    1.19
  12   5  -3    4.52    1.54
   5 -17  -3    6.60    1.61
  12 -17  -3    4.48    1.43
  -5 -12  -3    4.78    1.18
 -12  -5  -3    4.42    1.07
  17 -12  -3    4.00    0.82
  -5 -12  -3    5.10    1.21
  12 -17  -3    5.91    0.92
   5 -17  -3    6.97    1.84
 -17  12   4    1.07    1.03
 -17   5   4    2.63    1.48
   5 -17   4    2.52    1.39
  12 -17   4    1.02    1.16
  -5 -12   4   -1.22    1.06
  17 -12   4    1.67    1.32
 -12  -5   4    1.52    1.12
  -5  17  -4    0.43    0.57
  -5 -12  -4    0.61    0.50
 -12  -5  -4    0.76    1.34
 -17   5  -4    2.72    1.72
   5  12  -4    2.51    0.95
 -17  12  -4   -2.68    1.56
  12   5  -4    0.85    1.47
  17  -5  -4   -1.01    1.48
  -5  17  -4    2.56    1.55
 -12  17  -4    0.68    1.42
   5  12  -4    3.44    1.25
   5 -17  -4   -0.03    0.89
  12 -17  -4    0.28    1.29
  -5 -12  -4   -0.14    1.13
  17 -12  -4    1.00    0.68
 -12  -5  -4    0.10    0.68
 -12  -5  -4    0.14    1.07
  17 -12  -4    0.22    1.03
  -5 -12  -4   -0.23    1.07
  12 -17  -4    2.27    1.23
   5 -17  -4    0.45    1.67
 -17   5   5    9.52    1.92
   5 -17   5   11.38    1.92
  12 -17   5   11.00    1.60
  -5 -12   5    8.62    1.46
  17 -12   5    7.65    2.06
 -12  -5   5    6.14    1.72
  -5  17  -5    3.41    1.77
 -12  -5  -5   12.15    1.95
   5  12  -5    4.56    1.70
  12   5  -5   10.66    2.12
 -17   5  -5   12.23    2.41
  17  -5  -5   11.36    1.92
 -17  12  -5   11.23    2.20
  17 -12  -5   10.81    1.77
  -5  17  -5   11.72    2.04
   5 -17  -5   11.34    1.97
 -17  12  -5    3.91    1.64
  12   5  -5    5.69    1.27
 -12  17  -5   11.62    1.96
  12 -17  -5    9.99    1.83
  -5 -12  -5    8.35    1.65
   5  12  -5   11.64    1.81
 -12  -5  -5    5.69    1.65
  -5 -12  -5    7.72    1.47
  12 -17  -5    8.95    1.64
   5 -17  -5   12.37    2.06
   5 -17   6    2.65    1.54
  12 -17   6    0.10    1.34
  -5 -12   6    0.86    1.23
  17 -12   6   -0.20    1.84
 -12  -5   6    1.04    1.51
  -5  17  -6    2.18    2.33
   5  12  -6   -2.30    1.75
  12   5  -6    4.04    1.78
  17  -5  -6    1.76    1.56
 -12  -5  -6    1.90    1.69
  17 -12  -6    1.41    1.57
  17 -12  -6    0.71    0.79
   5 -17  -6    1.76    1.60
  12 -17  -6    0.65    1.51
  -5 -12  -6    0.62    1.42
  -5  17  -6    2.24    1.67
 -17  12  -6    1.65    1.21
  12   5  -6    1.57    1.34
 -12  17  -6    0.86    1.60
   5  12  -6    1.99    1.54
 -12  -5  -6    1.80    1.11
  17 -12  -6   -0.25    1.02
  -5 -12  -6   -0.07    1.21
  12 -17  -6   -0.57    1.31
   5 -17  -6    2.84    1.68
   5 -17   7    5.27    1.79
  12 -17   7    3.56    1.54
  -5 -12   7    1.27    1.52
  17 -12   7    4.83    1.75
 -12  -5   7    1.68    1.37
  -5  17  -7    1.47    2.53
   5  12  -7    7.53    3.47
  12   5  -7    4.44    2.13
  17  -5  -7    7.39    1.77
  17 -12  -7    5.10    1.87
  -5 -12  -7    0.95    1.21
 -12  -5  -7    4.65    2.20
   5 -17  -7    3.94    1.81
  12 -17  -7    3.10    1.80
  -5  17  -7    3.58    1.95
 -12  17  -7    5.22    1.89
   5  12  -7    0.73    1.85
 -17  12  -7    1.49    1.63
  12   5  -7    3.00    1.61
  17 -12  -7    1.10    1.33
 -12  -5  -7    1.72    1.39
  -5 -12  -7    3.22    1.44
  12 -17  -7    3.55    1.54
   5 -17  -7    4.98    1.91
   5 -17   8   -0.72    1.68
  12 -17   8   -1.48    1.47
  -5 -12   8    0.11    1.46
  17 -12   8   -1.15    1.67
 -12  -5   8    1.09    1.36
  -5  17  -8    1.08    2.28
   5  12  -8   -0.51    2.85
  12   5  -8    2.39    2.01
  17  -5  -8   -0.59    1.74
  17 -12  -8    0.35    1.84
  -5  17  -8    1.80    1.75
 -12  17  -8    1.89    1.78
   5  12  -8   -0.25    1.13
 -17  12  -8   -2.18    2.17
  12   5  -8    1.51    2.53
 -12  -5  -8   -1.32    1.76
  17 -12  -8    1.35    1.26
  -5 -12  -8   -0.17    1.37
  12 -17  -8    1.05    0.90
   5 -17  -8    1.50    1.76
 -12  -6   0    2.46    1.13
 -18  12   0    2.76    1.30
 -12  -6   1    1.32    1.06
 -18  12   1    1.13    1.13
 -18   6   1   -0.23    1.47
  18 -12   1    1.57    0.87
  18 -12   1   -0.20    0.57
  -6 -12  -1    0.98    0.72
 -12  18  -1    0.21    0.35
 -12  -6  -1    0.64    1.04
 -18  12  -1    1.97    1.25
 -12  -6  -1    0.34    0.62
 -12  -6   2   -0.14    1.07
 -18   6   2    0.17    1.42
 -18  12   2   -0.78    1.09
 -12  -6   2    0.53    0.87
  18 -12   2    0.29    1.02
  -6 -12  -2   -0.12    0.52
 -12  -6  -2    1.10    1.06
 -12  18  -2    0.16    0.43
 -18   6  -2    0.35    0.97
 -18  12  -2   -0.58    1.34
  12 -18  -2   -0.65    1.23
  -6 -12  -2   -0.23    0.88
 -12  -6  -2    0.21    0.59
  18 -12  -2    0.34    0.51
  18 -12  -2   -0.49    0.77
 -12  -6  -2    0.27    0.73
  -6 -12  -2    1.79    0.97
 -12  -6   3    1.94    1.08
 -18   6   3    0.75    1.42
 -18  12   3    0.00    1.09
  12 -18   3    0.79    1.17
   6 -18   3   -1.18    1.34
  -6 -12   3   -0.83    0.95
 -12  -6   3    0.64    0.79
  18 -12   3    0.97    0.94
  -6 -12  -3    0.38    0.51
 -12  -6  -3   -0.51    1.15
 -18  12  -3   -0.46    1.46
 -18   6  -3    0.57    1.65
 -12  18  -3   -0.11    0.43
   6  12  -3    0.54    0.78
  12   6  -3    0.51    1.33
  12 -18  -3    1.49    1.29
   6 -18  -3    1.33    1.40
  -6 -12  -3    0.53    0.96
 -12  -6  -3    0.18    0.64
  18 -12  -3    0.30    0.50
  18 -12  -3   -0.49    0.92
 -12  -6  -3    0.28    0.84
  -6 -12  -3    0.33    0.98
  12 -18  -3   -0.67    1.31
   6 -18  -3    0.80    1.59
 -18  12   4    1.45    1.09
 -18   6   4    0.38    1.51
  12 -18   4    0.41    1.23
   6 -18   4    1.39    1.42
  -6 -12   4   -0.69    1.02
 -12  -6   4   -0.83    0.93
  18 -12   4   -0.09    1.14
  -6 -12  -4    1.28    0.73
 -12  -6  -4   -0.26    1.25
 -18   6  -4    1.72    1.78
 -18  12  -4   -2.01    1.65
   6  12  -4   -0.06    0.98
  12   6  -4    1.82    1.51
 -12  18  -4    0.82    0.61
  18  -6  -4   -0.64    0.90
  -6  18  -4    0.96    0.97
   6 -18  -4   -1.12    1.51
  -6 -12  -4    0.81    1.07
  12 -18  -4    1.31    1.37
  18 -12  -4    0.77    0.57
 -12  -6  -4   -0.31    0.55
  18 -12  -4    0.08    1.09
 -12  -6  -4    0.37    0.75
  -6 -12  -4    1.02    1.01
  12 -18  -4    0.13    1.28
   6 -18  -4    1.65    1.66
 -18   6   5   -0.10    1.49
  12 -18   5    0.88    1.29
   6 -18   5   -0.01    1.50
  -6 -12   5    0.53    1.09
 -12  -6   5    0.66    1.09
  18 -12   5    1.32    1.33
  -6 -12  -5    0.30    0.61
   6  12  -5    0.95    1.30
 -12  -6  -5    0.22    1.40
 -18   6  -5   -0.93    1.87
  12   6  -5    0.87    1.66
  18  -6  -5    1.07    1.53
 -18  12  -5    2.98    1.72
 -18  12  -5    1.02    0.73
   6  12  -5   -1.15    1.36
 -12  18  -5   -0.99    1.57
  -6  18  -5   -0.17    1.62
  18 -12  -5    0.37    0.49
  -6 -12  -5   -0.42    1.20
 -12  -6  -5   -0.76    0.87
  12 -18  -5    0.71    1.45
   6 -18  -5   -0.57    1.54
  18 -12  -5    0.88    1.26
 -12  -6  -5    0.25    0.87
  -6 -12  -5   -0.73    1.05
  12 -18  -5   -0.30    0.82
   6 -18  -5    0.51    1.66
   6 -18   6    1.09    1.64
  12 -18   6    1.31    1.40
  -6 -12   6    1.28    1.23
 -12  -6   6    1.66    1.25
  18 -12   6    2.58    2.08
  -6 -12  -6   -0.56    0.72
   6  12  -6   -1.72    1.79
 -12  -6  -6    3.02    1.63
  12   6  -6    2.18    1.87
 -18   6  -6   -1.82    2.07
  18  -6  -6    0.70    1.62
  18 -12  -6    0.98    1.68
  18 -12  -6    0.86    0.83
  -6 -12  -6   -0.10    1.43
   6  12  -6    2.56    1.60
 -12  -6  -6   -0.02    1.12
  12   6  -6    1.32    1.06
 -12  18  -6   -0.88    1.72
  12 -18  -6    2.19    1.59
  -6  18  -6   -0.88    1.78
   6 -18  -6    1.14    1.65
 -18  12  -6    0.95    1.01
  18 -12  -6    1.77    1.51
 -12  -6  -6    1.15    1.35
  -6 -12  -6    1.21    1.16
  12 -18  -6    1.10    1.37
   6 -18  -6    1.04    1.76
   6 -18   7   -0.54    1.64
  12 -18   7   -1.11    1.46
  -6 -12   7    1.03    1.32
 -12  -6   7   -0.07    1.86
  18 -12   7    1.31    1.67
   6  12  -7   -0.54    2.37
  -6 -12  -7   -0.22    0.84
  12   6  -7    0.70    1.28
  18  -6  -7    0.88    1.64
 -12  -6  -7   -1.23    1.85
  18 -12  -7    0.38    1.75
  -6 -12  -7    0.12    1.56
  12 -18  -7    0.52    1.68
   6 -18  -7   -0.03    1.71
   6  12  -7    2.09    1.77
  12   6  -7   -0.13    1.43
 -12  18  -7    0.36    1.74
  -6  18  -7    0.38    1.76
 -18  12  -7   -0.36    1.30
  18 -12  -7    0.48    1.21
 -12  -6  -7    0.54    1.13
  -6 -12  -7    0.59    1.24
  12 -18  -7    1.51    1.46
   6 -18  -7   -0.64    1.76
 -12  -7   0    6.02    1.34
 -19  12   0    7.81    1.09
 -12  -7   1   -0.29    1.08
 -19  12   1    0.62    0.77
  -7 -12  -1   -0.47    0.83
 -12  -7  -1    2.73    1.06
 -19  12  -1   -0.04    0.88
   7 -19  -1    0.01    0.90
 -12  -7  -1    2.60    0.72
 -12  -7   2    2.84    1.18
 -19   7   2    3.81    1.66
 -19  12   2    3.73    1.35
  -7 -12   2    4.38    1.02
 -12  -7   2    2.03    0.78
  -7 -12  -2    1.16    0.86
 -12  -7  -2    2.68    1.18
 -19   7  -2    5.27    1.89
 -19  12  -2    2.31    1.68
   7 -19  -2    5.35    1.61
  -7 -12  -2    4.98    0.98
 -12  -7  -2    2.43    0.77
 -12  -7  -2    2.20    0.64
  -7 -12  -2    2.74    1.02
 -19   7   3   -1.49    1.50
 -19  12   3   -0.31    1.18
   7 -19   3    0.42    1.42
  12 -19   3    0.43    1.27
  -7 -12   3   -0.72    0.95
 -12  -7   3   -0.13    1.04
  -7 -12  -3    0.17    0.58
 -12  -7  -3   -0.56    1.12
 -19   7  -3   -1.25    1.78
 -19  12  -3    0.51    1.60
  -7 -12  -3   -0.50    0.93
   7 -19  -3   -3.26    1.53
  12 -19  -3   -1.31    1.40
 -12  -7  -3    0.59    0.53
 -12  -7  -3   -0.04    0.64
  -7 -12  -3   -0.59    0.93
  12 -19  -3   -0.79    1.44
   7 -19  -3    0.22    1.69
 -19   7   4    5.93    1.70
 -19  12   4    3.40    1.32
   7 -19   4    3.91    1.64
  12 -19   4    3.94    1.47
  -7 -12   4    2.93    1.13
 -12  -7   4    1.82    1.38
  -7 -12  -4    1.35    0.68
 -12  -7  -4    1.69    1.37
 -19   7  -4    2.63    2.10
 -19  12  -4    0.64    1.89
   7  12  -4    1.67    1.18
  12   7  -4    5.12    1.70
  -7 -12  -4    1.97    1.15
   7 -19  -4    2.84    1.69
  12 -19  -4    2.09    1.63
 -12  -7  -4    1.46    0.88
 -12  -7  -4    0.51    1.10
  -7 -12  -4    1.87    1.09
  12 -19  -4    3.45    1.55
   7 -19  -4    6.44    1.96
 -19   7   5   -1.22    1.57
   7 -19   5   -0.35    1.64
  12 -19   5    1.10    1.45
  -7 -12   5    1.35    1.50
 -12  -7   5    2.52    1.45
  -7 -12  -5    0.54    0.69
 -12  -7  -5   -0.70    1.37
 -19   7  -5    1.45    2.01
   7  12  -5    1.23    1.38
 -19  12  -5    2.75    1.87
  12   7  -5    1.83    1.79
  19  -7  -5    1.37    1.60
  -7  19  -5    0.43    1.73
 -12  19  -5   -0.16    1.67
  -7 -12  -5    0.97    1.20
   7 -19  -5   -0.60    1.69
  12 -19  -5    1.59    1.59
 -12  -7  -5    0.42    0.94
 -12  -7  -5    0.04    0.87
  -7 -12  -5    1.43    1.07
  12 -19  -5   -1.27    1.47
   7 -19  -5    0.23    1.75
   7 -19   6    1.82    1.74
  12 -19   6    3.57    1.58
  -7 -12   6    3.61    1.72
 -12  -7   6    2.90    1.75
  -7 -12  -6    1.74    0.81
   7  12  -6    0.87    1.95
 -12  -7  -6    2.13    2.29
 -19   7  -6    3.26    2.30
  12   7  -6    2.06    1.34
  19  -7  -6   -0.22    1.87
 -19  12  -6    3.33    1.36
  19 -12  -6    3.95    1.81
  12   7  -6    1.23    1.19
   7  12  -6    3.55    1.81
  -7  19  -6    4.20    1.94
 -12  19  -6    3.47    1.91
  -7 -12  -6    2.00    1.48
   7 -19  -6   -0.52    1.82
 -12  -7  -6    0.31    0.93
  12 -19  -6    2.13    1.79
 -12  -7  -6    0.75    1.03
  -7 -12  -6    0.98    1.23
  12 -19  -6    0.97    1.63
   7 -19  -6    0.23    1.99
 -12  -8   0    2.02    1.10
 -20  12   0    2.72    1.57
 -12  -8   1    1.81    1.17
 -20  12   1    5.15    1.55
  -8 -12  -1    2.31    0.98
 -12  -8  -1    4.50    1.13
 -20  12  -1    4.18    1.68
 -12  -8  -1    2.58    0.85
 -12  -8  -1    1.74    0.81
 -12  -8   2    1.13    1.11
 -20   8   2    2.46    1.07
 -20  12   2    4.33    1.40
   8 -20   2    1.53    1.02
 -12  -8   2    1.38    0.76
 -12  -8   2    1.00    0.59
  -8 -12  -2    1.44    0.90
 -12  -8  -2    2.18    1.08
 -20   8  -2   -0.37    1.89
 -20  12  -2    2.01    1.72
  -8 -12  -2    1.80    0.90
 -12  -8  -2    1.24    0.60
 -12  -8  -2    0.76    0.83
  -8 -12  -2    0.50    0.94
 -20   8   3    2.11    1.06
 -20  12   3    4.62    1.41
   8 -20   3    2.18    1.62
  12 -20   3    3.55    1.51
  -8 -12   3    1.78    1.04
 -12  -8   3   -0.06    0.92
  -8 -12  -3    0.79    0.94
 -12  -8  -3    2.35    1.18
 -20   8  -3    3.51    2.03
 -20  12  -3    0.86    1.89
   8 -20  -3    3.31    1.73
  12 -20  -3    2.86    1.66
  -8 -12  -3    3.13    1.00
 -12  -8  -3    2.24    0.85
 -12  -8  -3    1.55    0.73
  -8 -12  -3    2.56    0.99
   8 -20  -3    2.01    2.03
  12 -20  -3    4.47    1.11
 -20   8   4    1.29    1.68
 -20  12   4    0.40    1.39
   8 -20   4    3.02    1.61
  12 -20   4    1.60    1.51
  -8 -12   4    1.38    1.04
 -12  -8   4    1.10    0.98
  -8 -12  -4    0.76    0.69
 -12  -8  -4   -0.10    1.26
 -20   8  -4    2.10    2.09
 -20  12  -4    2.17    1.97
   8  12  -4    1.74    1.17
  12   8  -4    0.09    1.67
   8 -20  -4   -0.33    1.72
  12 -20  -4    0.64    1.63
  -8 -12  -4    0.54    1.05
 -12  -8  -4    0.53    0.69
 -12  -8  -4    0.71    0.78
  -8 -12  -4    0.66    0.99
  12 -20  -4    1.00    1.63
   8 -20  -4    4.66    1.91
 -20   8   5    2.98    1.82
   8 -20   5    7.02    1.91
  12 -20   5    4.29    1.70
  -8 -12   5    2.94    1.27
 -12  -8   5    2.19    1.22
  -8 -12  -5    1.44    0.86
 -12  -8  -5    3.53    1.52
 -20   8  -5    6.00    2.44
 -20  12  -5    2.82    2.26
   8  12  -5    2.88    1.66
  12   8  -5    5.95    2.17
  -8 -12  -5    2.28    1.34
   8 -20  -5    4.13    1.93
 -12  -8  -5    2.22    0.88
  12 -20  -5    2.42    1.90
 -12  -8  -5    2.76    0.96
  -8 -12  -5    3.78    1.16
  12 -20  -5    6.97    1.81
   8 -20  -5    5.92    2.11
 -12  -9   0   -0.22    1.00
 -12  -9   1    1.18    1.02
 -21  12   1    2.39    1.58
  -9 -12   1    1.36    0.84
  -9 -12   1    0.31    0.92
  -9 -12  -1    0.61    0.72
 -12  -9  -1   -0.27    1.01
  -9 -12  -1    0.61    0.82
 -21   9   2    3.97    1.83
 -21  12   2    4.60    1.64
  -9 -12   2    1.55    1.00
  -9 -12  -2    2.06    1.01
 -12  -9  -2    3.04    1.13
 -21  12  -2    5.86    1.94
 -21   9  -2    1.42    2.08
  -9 -12  -2    2.27    0.93
  -9 -12  -2    2.52    0.95
   9 -21  -2    2.05    2.08
 -21   9   3    0.13    1.61
 -21  12   3   -0.45    1.42
   9 -21   3   -0.34    0.95
  12 -21   3    0.92    1.46
  -9 -12   3    0.03    1.25
  -9 -12  -3   -0.27    0.92
 -12  -9  -3    1.08    1.01
 -21   9  -3   -0.84    1.96
 -21  12  -3   -0.87    1.13
   9 -21  -3   -2.17    1.66
  12 -21  -3    1.92    1.59
  -9 -12  -3    0.18    0.87
  -9 -12  -3    0.14    0.83
   9 -21  -3    0.27    1.97
  12 -21  -3    0.26    1.06
 -13  13   0  110.92    4.31
   0 -13   0  132.58    4.08
  13 -13   0  126.58    4.30
 -13  13  -1    4.59    0.95
  13 -13  -1    8.77    0.95
  13 -13  -1    7.96    0.98
 -13   0   2   65.71    3.31
  13 -13   2   51.65    2.34
 -13   0  -2   65.62    3.39
  13   0  -2   61.12    3.28
  13 -13  -2   53.65    2.44
   0 -13  -2   65.30    3.24
 -13  13   3    3.14    0.75
 -13   0   3    3.87    0.85
   0 -13   3    4.70    1.25
  13 -13   3    4.12    0.92
   0  13  -3    1.55    0.75
  13   0  -3    2.54    1.45
 -13  13  -3    2.95    1.09
 -13  13  -3    2.33    1.16
   0 -13  -3    4.68    1.32
  13 -13  -3    1.65    1.25
  13 -13  -3    3.15    0.90
   0 -13  -3    5.01    1.41
 -13   0   4   39.34    2.69
   0 -13   4   38.29    2.42
  13 -13   4   30.53    2.54
  13   0  -4   35.79    1.90
 -13   0  -4   45.98    3.04
   0 -13  -4   41.25    2.60
  13 -13  -4   32.75    2.15
   0  13  -4   40.20    2.73
 -13  13  -4   38.40    2.51
   0 -13  -4   38.20    2.67
   0 -13   5    6.04    0.94
  13 -13   5    4.55    1.18
 -13   0   5    3.84    1.13
   0  13  -5    4.32    1.52
  13   0  -5    6.97    1.62
 -13   0  -5    8.48    1.90
  13 -13  -5    4.11    1.04
   0 -13  -5    6.61    0.97
   0  13  -5    6.97    1.59
 -13  13  -5    6.91    1.41
  13   0  -5    2.81    0.93
 -13   0  -5    3.57    1.08
  13 -13  -5    4.51    1.09
   0 -13  -5    7.99    1.57
   0 -13   6   18.30    1.98
  13 -13   6   13.26    1.70
   0  13  -6   18.44    2.86
  13   0  -6   15.96    2.13
  13 -13  -6   14.48    1.68
   0  13  -6   18.15    2.19
 -13  13  -6   17.38    2.03
  13 -13  -6   14.24    2.05
   0 -13  -6   17.07    2.05
   0 -13   7    4.98    1.60
  13 -13   7    2.51    1.37
 -13   0   7    3.27    1.63
  13   0   7    3.17    1.52
   0  13  -7    7.98    2.52
  13   0  -7    2.22    1.67
  13 -13  -7    3.01    1.58
   0  13  -7    7.06    1.67
 -13  13  -7    4.01    1.65
  13   0  -7    4.77    1.59
 -13   0  -7    4.53    1.17
  13 -13  -7    2.14    1.26
   0 -13  -7    7.20    1.63
   0 -13   8    2.83    1.62
  13 -13   8    3.33    1.40
 -13   0   8    3.26    1.79
  13   0   8    1.62    1.98
   0  13  -8    4.28    2.35
  13   0  -8    4.23    1.72
  13 -13  -8    3.36    2.26
   0  13  -8    5.03    1.74
 -13  13  -8    3.62    1.68
  13   0  -8    3.46    1.88
 -13   0  -8    2.22    1.30
  13 -13  -8    1.27    1.31
   0 -13  -8    4.35    1.68
   0 -13   9    3.11    1.07
  13 -13   9    3.77    1.57
 -13   0   9    2.38    1.55
  13   0   9    3.48    2.57
   0  13  -9    0.06    1.97
  13   0  -9    1.26    1.13
  13 -13  -9    2.92    1.99
   0  13  -9    2.10    1.79
 -13  13  -9    2.84    1.81
  13   0  -9    3.18    2.05
 -13   0  -9    2.67    1.92
  13 -13  -9    1.80    1.42
   0 -13  -9    3.33    1.77
   0 -13  10    3.17    1.80
  13 -13  10    1.07    1.68
 -13   0  10    2.13    1.70
  13   0  10   -2.01    4.15
   0  13 -10    2.18    1.73
  13   0 -10    1.80    2.00
  13 -13 -10   -1.58    2.98
   0  13 -10    0.92    1.89
 -13  13 -10    6.09    1.93
  13   0 -10    3.04    2.70
 -13   0 -10    0.05    1.62
  13 -13 -10    2.31    1.48
   0 -13 -10    1.99    1.86
 -14  13   0    1.25    0.80
  13 -14   0    2.67    0.84
  14 -13   0    2.24    0.69
 -13  14   1    7.71    0.73
 -14   1   1    9.93    1.53
 -14  13   1    7.64    0.91
 -13  -1   1    9.51    0.92
  14 -13   1    8.95    0.89
  13 -14   1    8.49    1.04
 -14   1  -1    9.95    1.61
 -14  13  -1    7.11    1.06
 -13  14  -1    6.21    1.10
   1 -14  -1    9.87    1.40
  14 -13  -1    7.27    0.83
  13 -14  -1    7.98    1.01
  14 -13  -1    7.13    1.19
  13 -14  -1    9.66    1.09
 -13  14   2    0.50    0.53
 -14  13   2    1.74    0.68
 -13  -1   2   -0.50    1.15
  -1 -13   2    1.28    1.05
  13 -14   2    1.08    0.81
  14 -13   2   -0.19    0.93
 -13  -1  -2   -2.22    1.24
 -14   1  -2    0.75    1.33
 -14  13  -2   -0.18    0.91
 -13  14  -2   -0.15    0.72
  -1  14  -2   -0.21    0.30
   1  13  -2    0.35    0.49
  13   1  -2    0.93    0.74
   1 -14  -2    1.39    0.67
  14 -13  -2   -0.65    0.66
  13 -14  -2   -0.29    0.80
  14 -13  -2    0.74    0.70
  13 -14  -2    0.70    0.86
   1 -14  -2    1.16    1.25
 -14  13   3    5.25    1.15
 -14   1   3    5.65    1.56
 -13  -1   3    6.52    1.41
   1 -14   3    5.38    1.32
  -1 -13   3    4.45    1.22
  13 -14   3    5.76    1.04
  14 -13   3    6.27    0.95
 -14   1  -3    7.56    1.66
 -13  -1  -3    7.21    1.55
   1  13  -3    3.59    0.85
  14  -1  -3    6.00    1.57
  13   1  -3    6.22    0.95
 -13  14  -3    5.58    1.12
  -1  14  -3    6.03    1.49
 -14  13  -3    6.71    1.14
 -13  14  -3    8.48    1.30
   1  13  -3    7.37    1.42
   1 -14  -3    6.28    0.88
  14 -13  -3    3.84    0.91
  13 -14  -3    4.86    1.05
  -1 -13  -3    6.34    1.34
  14 -13  -3    5.50    1.20
  13 -14  -3    4.96    1.01
  -1 -13  -3    7.00    1.49
   1 -14  -3    6.44    1.57
 -14   1   4    1.32    0.78
 -13  -1   4    1.48    1.21
   1 -14   4   -0.23    1.14
  -1 -13   4    1.02    0.62
  13 -14   4   -0.94    0.88
  14 -13   4    0.80    0.83
 -13  -1   4   -0.15    0.67
  -1  14  -4    0.53    0.87
  -1 -13  -4   -0.51    0.31
   1  13  -4    0.20    0.98
 -14   1  -4    1.18    1.42
  14  -1  -4   -1.41    1.27
 -13  -1  -4    0.23    1.35
  13   1  -4   -0.21    1.27
  -1  14  -4    0.96    1.25
   1 -14  -4    0.22    1.21
 -14  13  -4   -0.62    1.03
  14 -13  -4   -0.24    0.80
 -13  -1  -4   -0.14    0.41
  13   1  -4   -0.18    0.38
 -13  14  -4    0.95    1.13
  13 -14  -4    1.10    0.97
  -1 -13  -4    0.93    1.15
   1  13  -4    1.09    1.21
 -14   1  -4   -0.09    0.40
 -13  -1  -4    0.41    0.52
  14 -13  -4    0.20    0.75
  13 -14  -4    0.11    0.88
  -1 -13  -4    0.81    1.18
   1 -14  -4   -0.83    1.32
 -14   1   5    5.29    0.97
   1 -14   5    8.49    1.51
  -1 -13   5    5.83    1.46
  13 -14   5    5.08    1.23
  14 -13   5    6.39    1.17
 -13  -1   5    5.44    1.20
 -14   1   5    7.42    1.06
  -1  14  -5    4.43    1.47
   1  13  -5    6.69    1.87
  13   1  -5    8.86    1.69
  14  -1  -5    6.80    1.65
 -14   1  -5    7.93    1.93
  14 -13  -5    4.36    1.18
 -13  -1  -5    6.86    1.86
  13 -14  -5    5.52    0.89
   1 -14  -5    7.24    1.55
  14 -13  -5    6.52    1.25
  13 -14  -5    5.89    1.35
  -1 -13  -5    7.21    1.53
  -1  14  -5    6.34    1.06
 -14  13  -5    7.23    1.43
 -13  14  -5    5.58    1.55
   1  13  -5    8.28    1.01
  13   1  -5    3.90    0.69
 -14   1  -5    4.24    0.99
 -13  -1  -5    4.63    0.93
  14 -13  -5    5.08    1.06
  13 -14  -5    5.00    1.16
   1 -14  -5    5.52    1.67
  -1 -13  -5    8.50    1.57
   1 -14   6   -0.28    1.35
  -1 -13   6    0.14    1.25
  13 -14   6    1.55    1.09
  14 -13   6    0.55    1.05
 -13  -1   6   -0.26    1.17
 -14   1   6    1.22    1.04
  -1  14  -6    0.37    1.82
   1  13  -6   -0.07    1.69
  14  -1  -6   -0.83    0.85
  13   1  -6    3.95    1.45
   1 -14  -6    0.20    0.31
  14 -13  -6    0.11    1.13
  13 -14  -6    0.89    0.87
  -1 -13  -6    0.38    0.41
 -14   1  -6    1.45    1.77
  -1  14  -6    1.35    1.41
 -14  13  -6    0.51    1.29
 -13  14  -6   -0.33    1.35
   1  13  -6    1.37    1.41
  13   1  -6    0.60    1.18
  14  -1  -6    1.31    0.82
 -14   1  -6    0.83    0.77
 -13  -1  -6    1.09    0.86
  14 -13  -6    1.17    0.97
  13 -14  -6   -0.14    1.02
   1 -14  -6   -0.92    1.44
  -1 -13  -6    0.37    0.81
   1 -14   7    1.67    1.41
  -1 -13   7    0.63    1.32
  13 -14   7    0.16    1.21
  14 -13   7   -0.52    1.16
 -13  -1   7    0.92    1.41
 -14   1   7   -0.01    1.02
  14  -1   7    1.88    1.22
  -1  14  -7    1.66    3.12
   1  13  -7    2.47    2.29
  14  -1  -7    0.20    1.53
  13   1  -7    0.81    1.50
  14 -13  -7    2.32    1.43
  13 -14  -7    2.64    1.08
  -1  14  -7    1.10    1.50
   1  13  -7    1.60    1.46
 -14  13  -7    0.47    1.42
 -13  14  -7    1.69    1.46
  13   1  -7    1.34    1.28
  14  -1  -7   -1.04    1.32
 -14   1  -7   -0.13    1.29
 -13  -1  -7    0.79    1.02
  14 -13  -7    0.20    1.07
  13 -14  -7   -0.25    1.12
   1 -14  -7   -3.00    1.50
  -1 -13  -7    0.96    0.85
   1 -14   8    2.82    1.52
  -1 -13   8    1.77    1.45
  13 -14   8    0.38    1.34
  14 -13   8    2.20    1.32
 -13  -1   8    2.01    1.28
 -14   1   8    1.66    1.22
  14  -1   8   -2.37    1.75
  -1  14  -8    1.53    2.32
   1  13  -8    0.57    2.60
  14  -1  -8    0.65    1.58
  13   1  -8    0.65    1.62
  14 -13  -8   -0.86    1.64
  13 -14  -8    1.66    1.38
  -1  14  -8    0.69    1.64
 -13  14  -8    0.19    1.61
   1  13  -8    3.27    1.62
 -14  13  -8    0.69    1.53
  13   1  -8    0.00    1.38
  14  -1  -8   -1.14    1.78
 -14   1  -8    1.90    1.53
 -13  -1  -8   -0.07    1.61
  14 -13  -8    0.74    1.16
  13 -14  -8    0.54    1.23
   1 -14  -8    0.59    1.60
  -1 -13  -8   -0.47    0.93
   1 -14   9   -1.15    1.65
  -1 -13   9    2.34    1.55
  13 -14   9   -0.67    1.43
  14 -13   9   -0.03    1.43
 -13  -1   9   -0.37    1.41
 -14   1   9   -1.13    1.40
  14  -1   9   -0.85    2.39
  13   1   9   -3.90    2.29
  -1  14  -9    2.50    1.85
   1  13  -9   -0.58    2.27
  14  -1  -9    0.29    1.74
  13   1  -9   -1.05    1.72
  14 -13  -9    0.39    2.46
  13 -14  -9    2.95    1.79
  -1  14  -9    3.07    1.66
   1  13  -9    0.75    1.66
 -14  13  -9   -0.38    1.65
 -13  14  -9   -0.07    1.70
  13   1  -9   -0.43    2.12
  14  -1  -9   -0.75    2.61
 -14   1  -9    1.99    1.76
 -13  -1  -9    0.10    1.35
  14 -13  -9   -0.83    1.27
  13 -14  -9    0.59    1.30
   1 -14  -9    3.02    1.64
  -1 -13  -9    0.74    1.57
   1 -14  10   -2.78    1.77
  -1 -13  10   -0.31    1.05
  13 -14  10   -0.16    1.54
  14 -13  10    0.72    1.57
 -13  -1  10    0.58    2.14
 -14   1  10    0.12    1.60
  14  -1  10    5.08    4.02
  13   1  10   -1.92    3.99
  -1  14 -10    1.39    1.62
   1  13 -10    3.32    1.80
  14  -1 -10   -2.27    1.90
  13   1 -10    1.64    1.14
  13 -14 -10    0.44    2.13
  14 -13 -10   -0.60    2.14
  -1  14 -10   -0.35    1.80
 -13  14 -10   -0.18    1.88
   1  13 -10   -0.26    1.82
 -14  13 -10   -0.35    1.87
  13   1 -10   -3.11    3.07
  14  -1 -10    0.76    2.00
 -14   1 -10   -0.29    1.47
 -13  -1 -10    2.54    1.47
  14 -13 -10    0.24    1.36
  13 -14 -10    0.49    1.46
  -1 -13 -10    0.09    1.69
   1 -14 -10    1.38    1.82
 -13  15   0    1.63    0.54
 -15  13   0    2.82    0.92
 -15  13   1   12.72    1.13
 -15   2   1   15.44    1.83
 -13  -2   1   13.50    1.61
 -15  13  -1    7.03    1.78
  13 -15  -1   12.91    1.24
  15 -13  -1   10.98    1.16
  13 -15  -1   13.18    1.35
 -13  15   2    1.78    0.55
 -15  13   2    2.31    0.84
 -13  -2   2    1.21    1.31
  13 -15   2    3.31    0.96
  15 -13   2    2.18    0.77
 -15   2  -2    1.68    1.53
 -15  13  -2    3.33    1.12
 -13  15  -2    1.70    0.71
  15 -13  -2    1.47    0.66
  13 -15  -2    2.33    0.98
  15 -13  -2    2.35    0.69
  13 -15  -2    2.88    1.00
 -15  13   3    4.03    0.91
 -13  -2   3    5.09    1.42
 -15   2   3    2.70    1.50
  -2 -13   3    4.62    1.18
   2 -15   3    4.91    1.33
  13 -15   3    3.94    1.06
  15 -13   3    3.03    1.19
 -15   2  -3    5.51    1.70
 -13  -2  -3    5.33    1.54
   2  13  -3    2.88    0.85
 -15  13  -3    2.54    1.32
  13   2  -3    4.32    1.54
  15  -2  -3    3.42    1.47
  -2  15  -3    5.37    0.94
  -2 -13  -3    5.48    1.27
   2 -15  -3    6.42    1.41
  15 -13  -3    1.82    1.01
  13 -15  -3    4.59    1.10
 -13  -2  -3    2.35    0.68
  15 -13  -3    3.25    0.80
  13 -15  -3    5.01    1.07
  -2 -13  -3    3.22    1.42
   2 -15  -3    7.11    1.56
 -13  -2   4    0.94    1.30
 -15   2   4    1.96    1.41
  -2 -13   4    2.04    1.11
   2 -15   4    0.53    1.26
  13 -15   4    1.54    1.02
  15 -13   4    1.43    0.88
 -13  -2   4   -0.27    0.82
  -2  15  -4    0.06    0.79
   2  13  -4   -0.17    1.07
 -15   2  -4    1.47    1.61
 -13  -2  -4    1.64    1.45
  13   2  -4    0.95    1.41
  15  -2  -4    1.47    1.44
 -15  13  -4    1.06    1.27
  -2 -13  -4    2.98    1.22
   2  13  -4    1.37    1.30
 -15  13  -4    0.03    1.08
 -13  15  -4    0.94    1.26
  -2  15  -4    0.74    1.42
   2 -15  -4    1.84    1.33
  15 -13  -4    1.56    0.77
 -13  -2  -4    0.68    0.48
  13 -15  -4    1.16    1.13
 -13  -2  -4    1.11    0.85
  15 -13  -4    0.52    1.05
  13 -15  -4    0.81    0.99
  -2 -13  -4    2.21    1.24
   2 -15  -4    1.17    1.50
 -15   2   5    7.59    1.61
  -2 -13   5    5.74    1.34
   2 -15   5    5.25    1.55
  13 -15   5    4.17    1.25
  15 -13   5    4.24    1.14
 -13  -2   5    2.18    0.91
  -2  15  -5    3.36    1.30
   2  13  -5    4.87    1.76
  15  -2  -5    6.22    1.01
 -13  -2  -5    5.47    1.80
  13   2  -5    5.42    1.71
 -15   2  -5    5.59    1.99
  15 -13  -5    3.47    1.29
  -2 -13  -5    6.57    1.53
  15 -13  -5    4.95    1.10
  13 -15  -5    6.72    1.42
   2 -15  -5    6.43    1.63
   2  13  -5    6.09    1.59
 -15  13  -5    4.01    1.85
 -13  15  -5    6.24    1.58
  -2  15  -5    7.48    1.70
 -13  -2  -5    2.60    1.24
  15 -13  -5    3.20    1.04
  13 -15  -5    3.94    1.20
  -2 -13  -5    5.49    1.50
   2 -15  -5    4.60    1.70
  -2 -13   6    1.70    1.27
   2 -15   6    1.59    1.41
  13 -15   6    0.88    1.16
  15 -13   6   -0.51    1.11
 -13  -2   6    0.79    1.25
 -15   2   6    1.37    0.92
  -2  15  -6    1.01    1.84
   2  13  -6    0.05    0.64
  15  -2  -6    2.82    1.51
  13   2  -6    0.40    0.96
  -2 -13  -6    1.00    0.46
  15 -13  -6    2.07    1.31
  13 -15  -6    0.85    0.99
   2 -15  -6    1.05    0.91
   2  13  -6    1.03    1.45
  -2  15  -6    1.22    1.51
 -15  13  -6    1.02    1.78
 -13  15  -6    1.90    1.43
  13   2  -6   -0.36    1.15
  15  -2  -6    0.36    0.74
 -15   2  -6    0.64    0.97
 -13  -2  -6    1.67    0.94
  15 -13  -6    0.60    0.99
  13 -15  -6    1.96    1.10
  -2 -13  -6   -1.47    1.33
   2 -15  -6    1.64    1.51
  -2 -13   7    1.52    1.45
   2 -15   7    2.22    1.56
  13 -15   7    1.16    1.31
  15 -13   7    1.91    1.27
 -13  -2   7    1.00    1.19
 -15   2   7    0.67    1.13
  15  -2   7    1.50    1.58
  -2  15  -7    4.78    2.57
   2  13  -7    5.28    2.43
  13   2  -7    2.71    1.65
  15  -2  -7    4.38    1.63
  15 -13  -7    2.25    1.58
  13 -15  -7   -0.22    1.27
  -2 -13  -7    1.08    0.84
 -13  -2  -7    1.71    2.06
   2  13  -7    3.33    1.00
 -13  15  -7    3.44    1.64
  -2  15  -7    3.00    1.69
 -15  13  -7    2.13    1.56
  13   2  -7    1.34    1.82
  15  -2  -7    0.83    1.82
 -15   2  -7   -1.84    1.35
 -13  -2  -7    3.48    1.51
  15 -13  -7    1.46    1.13
  13 -15  -7    0.99    1.25
  -2 -13  -7    2.51    1.46
   2 -15  -7    2.80    1.61
  -2 -13   8   -0.08    1.48
   2 -15   8    0.56    1.58
  13 -15   8    1.03    1.37
  15 -13   8    0.13    1.34
 -13  -2   8    2.58    1.28
 -15   2   8   -0.02    1.85
  15  -2   8    0.64    1.78
  -2  15  -8    2.31    2.68
   2  13  -8    3.94    2.82
  15  -2  -8   -1.25    1.68
  13   2  -8    0.55    1.72
  15 -13  -8    3.39    1.76
  13 -15  -8    2.33    1.52
  -2  15  -8    1.36    1.71
   2  13  -8   -1.64    1.65
 -15  13  -8   -1.83    1.61
 -13  15  -8    2.97    1.66
  13   2  -8    0.80    2.40
  15  -2  -8    1.85    1.82
 -15   2  -8   -0.07    1.17
 -13  -2  -8   -0.83    1.23
  15 -13  -8   -0.06    1.17
  13 -15  -8   -0.35    1.26
  -2 -13  -8    1.55    1.54
   2 -15  -8    2.29    1.65
  -2 -13   9    0.74    1.66
   2 -15   9    2.41    1.80
  13 -15   9    2.50    1.52
  15 -13   9   -0.24    1.54
 -13  -2   9    4.04    2.05
 -15   2   9    0.90    2.01
  15  -2   9    3.09    3.38
  -2  15  -9    2.23    2.18
   2  13  -9    0.51    2.97
  13   2  -9    2.18    1.87
  15  -2  -9    2.16    1.12
  13 -15  -9   -1.31    1.52
  15 -13  -9   -0.17    2.07
   2  13  -9    0.34    1.14
  -2  15  -9    2.46    1.84
 -13  15  -9    0.27    1.88
 -15  13  -9    0.50    1.83
  13   2  -9    0.32    2.42
  15  -2  -9    2.14    3.16
 -15   2  -9   -1.36    1.44
 -13  -2  -9    2.09    1.45
  15 -13  -9    1.12    1.32
  13 -15  -9    1.65    1.41
  -2 -13  -9    1.72    1.04
   2 -15  -9    4.18    1.82
 -13  -3   0   37.74    2.31
 -16  13   0   29.65    1.95
 -13  16   1    2.46    0.65
 -13  -3   1    1.12    1.43
 -13  16  -1    0.38    0.70
 -16  13  -1    0.41    1.16
  16 -13  -1    2.66    0.58
 -13  -3   2    6.57    1.45
 -16   3   2    7.03    1.69
 -16  13   2    6.48    1.06
  13 -16   2    6.09    1.18
  16 -13   2    5.11    0.87
 -13  -3  -2    7.15    1.53
 -16   3  -2    6.75    1.77
 -16  13  -2    7.08    1.39
  13 -16  -2    7.53    1.21
  16 -13  -2    5.77    0.88
 -13  -3  -2    3.86    0.84
  16 -13  -2    5.83    1.04
  -3 -13  -2   10.27    1.43
 -16  13   3    0.06    0.86
 -13  -3   3    1.40    1.21
 -16   3   3   -0.92    1.41
   3 -16   3   -1.37    1.24
  -3 -13   3   -0.54    1.04
  13 -16   3    0.90    0.98
  16 -13   3    0.08    1.02
 -13  -3   3    0.39    0.54
  -3 -13  -3    0.51    0.48
 -13  -3  -3   -2.02    1.32
  -3  16  -3   -0.16    0.27
 -16   3  -3    0.05    1.56
 -16  13  -3    2.21    1.21
   3  13  -3    0.06    0.60
  13   3  -3    1.97    1.36
 -13  16  -3   -0.04    0.71
  16  -3  -3    0.74    0.85
   3 -16  -3   -0.63    1.31
  -3 -13  -3    0.85    1.11
  13 -16  -3    0.15    1.06
  16 -13  -3    0.97    0.57
 -13  -3  -3    0.35    0.41
 -13  -3  -3    1.24    0.71
  16 -13  -3    0.83    0.65
  -3 -13  -3    0.33    1.20
  13 -16  -3    0.91    1.06
   3 -16  -3    0.86    1.48
 -16  13   4    5.60    1.05
 -13  -3   4    4.52    1.52
 -16   3   4    8.58    1.76
   3 -16   4    7.35    1.57
  -3 -13   4    6.09    1.32
  13 -16   4    6.50    1.30
  16 -13   4    4.37    1.08
 -13  -3   4    3.81    1.10
   3  13  -4    3.55    1.32
 -13  -3  -4    8.11    1.77
 -16   3  -4    9.78    1.96
  16  -3  -4    7.66    1.68
  13   3  -4    9.76    1.73
 -16  13  -4    6.47    1.16
   3  13  -4    8.19    1.55
  -3  16  -4    7.07    1.77
 -13  16  -4    6.18    1.61
   3 -16  -4    8.15    1.68
  -3 -13  -4    5.45    1.47
  13 -16  -4    5.77    1.47
 -13  -3  -4    3.54    1.17
  16 -13  -4    4.24    0.95
  13 -16  -4    6.76    1.30
  -3 -13  -4    7.08    1.47
   3 -16  -4   10.33    1.84
 -16   3   5    1.18    1.45
   3 -16   5    1.42    1.40
  -3 -13   5    0.32    1.19
  13 -16   5   -0.97    1.13
  16 -13   5    0.05    1.02
 -13  -3   5    0.45    0.85
  -3  16  -5    0.11    0.97
  -3 -13  -5    0.87    0.55
   3  13  -5   -0.01    1.14
  16  -3  -5   -0.16    1.48
 -13  -3  -5    2.04    0.98
  13   3  -5    1.33    1.53
 -16   3  -5   -0.63    1.77
  16 -13  -5    1.62    1.16
  -3  16  -5    2.37    1.53
   3 -16  -5   -0.18    1.46
  16 -13  -5    0.81    1.08
  -3 -13  -5    0.63    1.34
   3  13  -5    2.06    1.39
 -16  13  -5   -0.78    1.23
 -13  -3  -5    0.61    0.68
  13   3  -5    0.94    0.75
 -13  16  -5    0.72    1.44
  13 -16  -5    1.46    1.29
 -13  -3  -5    1.32    1.13
  16 -13  -5    0.83    1.15
  13 -16  -5    0.81    1.11
  -3 -13  -5    1.39    1.27
   3 -16  -5    1.81    1.57
   3 -16   6    5.75    1.66
  -3 -13   6    3.90    1.41
  13 -16   6    5.50    1.39
  16 -13   6    4.09    1.30
 -13  -3   6    4.75    1.50
  -3  16  -6    1.06    1.90
   3  13  -6    4.76    1.88
  13   3  -6    3.46    1.88
  16  -3  -6    2.11    1.69
  16 -13  -6    3.99    2.15
 -13  -3  -6    6.44    2.04
   3 -16  -6    4.92    1.71
  -3 -13  -6    5.52    1.62
  13 -16  -6    3.26    1.57
  -3  16  -6    6.10    1.12
 -16  13  -6    3.73    1.54
   3  13  -6    3.63    1.07
 -13  16  -6    4.16    1.73
  13   3  -6    1.86    1.30
 -13  -3  -6    1.34    1.49
  16 -13  -6    3.23    1.45
  13 -16  -6    4.64    1.33
  -3 -13  -6    3.76    1.48
   3 -16  -6    5.14    1.81
   3 -16   7    0.65    1.60
  -3 -13   7   -1.50    1.42
  13 -16   7    0.85    0.83
  16 -13   7   -0.03    1.30
 -13  -3   7    0.38    1.17
  -3  16  -7    1.22    2.52
   3  13  -7    0.55    3.07
  16  -3  -7    0.74    1.63
  13   3  -7    1.58    1.73
  16 -13  -7    3.29    1.61
  -3 -13  -7    1.48    0.63
 -13  -3  -7    2.61    2.09
  13 -16  -7    1.21    0.74
  -3  16  -7    2.39    1.67
 -16  13  -7    0.21    1.52
   3  13  -7    1.26    1.64
 -13  16  -7    2.72    1.65
  13   3  -7    0.12    1.76
 -13  -3  -7    0.66    1.18
  16 -13  -7    1.25    1.10
  13 -16  -7   -0.21    1.28
  -3 -13  -7    2.69    1.39
   3 -16  -7   -0.60    1.66
   3 -16   8    4.71    1.69
  -3 -13   8    0.88    1.58
  13 -16   8    2.14    1.48
  16 -13   8   -0.82    2.02
 -13  -3   8    0.60    1.80
  -3  16  -8    1.33    3.06
   3  13  -8    6.23    3.03
  13   3  -8    2.18    1.90
  16  -3  -8   -0.81    1.80
  16 -13  -8    0.03    1.88
  13 -16  -8    0.75    0.94
  -3  16  -8    2.80    1.10
   3  13  -8    0.77    1.77
 -13  16  -8   -1.12    1.82
 -16  13  -8    1.50    2.29
  13   3  -8    2.43    2.58
 -13  -3  -8    1.90    1.44
  16 -13  -8    0.79    1.21
  13 -16  -8    0.29    1.38
  -3 -13  -8    1.23    1.53
   3 -16  -8    2.71    1.79
   3 -16   9   -2.61    1.77
  -3 -13   9    0.49    1.64
  13 -16   9    2.70    1.54
  16 -13   9   -0.69    1.63
 -13  -3   9    0.43    1.53
  -3  16  -9    1.04    3.12
   3  13  -9    6.72    4.39
  16  -3  -9    0.72    1.88
  13   3  -9   -0.97    1.91
  16 -13  -9    2.10    2.09
  13 -16  -9    1.05    1.57
  -3  16  -9    1.98    1.85
   3  13  -9    2.75    1.90
 -13  16  -9    0.65    1.91
 -16  13  -9   -1.51    1.83
  13   3  -9    5.27    2.46
 -13  -3  -9    1.76    2.01
  16 -13  -9    0.03    1.30
  13 -16  -9    0.17    1.46
  -3 -13  -9    0.62    1.60
   3 -16  -9    0.37    1.87
 -13  17   0    1.14    0.49
 -17  13   0    0.44    0.96
  17 -13   0   -0.09    0.52
 -13  -4   0   -0.21    0.50
 -13  -4   0   -0.70    0.45
 -13  17   1   -0.07    0.36
 -13  -4   1   -0.88    1.11
 -17  13   1    0.19    0.92
 -17   4   1   -1.32    1.39
 -13  -4   1    0.77    0.58
 -13  -4   1   -0.23    0.37
 -13  -4  -1    0.63    1.12
 -13  17  -1   -0.01    0.54
 -17  13  -1   -0.74    1.08
  17 -13  -1   -0.10    0.49
 -13  -4  -1    0.18    0.44
 -13  -4  -1    0.06    0.54
 -13  -4   2    0.25    1.14
 -17   4   2   -1.03    1.42
 -17  13   2   -1.18    0.92
  -4 -13   2    0.44    0.95
  17 -13   2    0.62    0.68
 -13  -4   2    0.64    0.65
 -13  -4   2    0.10    0.27
  -4 -13  -2   -0.58    0.55
 -13  -4  -2    0.00    1.20
 -17   4  -2    1.55    0.93
 -13  17  -2   -0.21    0.64
 -17  13  -2    0.29    1.18
  -4 -13  -2    0.47    1.01
  13 -17  -2    0.14    1.06
  17 -13  -2    0.11    0.63
 -13  -4  -2    0.90    0.44
 -13  -4  -2    0.95    0.68
  17 -13  -2    0.42    0.77
 -13  -4   3    2.02    1.17
 -17   4   3   -0.25    1.37
 -17  13   3    0.28    0.90
   4 -17   3    0.02    1.24
  -4 -13   3    0.98    0.98
  13 -17   3    0.71    1.03
  17 -13   3    0.93    1.03
 -13  -4   3    0.15    0.82
  -4 -13  -3   -0.33    0.40
 -13  -4  -3   -0.39    1.23
 -17   4  -3    0.57    1.54
 -17  13  -3   -0.67    1.30
   4  13  -3   -0.01    0.64
  13   4  -3    0.35    1.32
  -4 -13  -3   -0.29    1.07
   4 -17  -3   -0.02    0.81
  13 -17  -3   -0.61    1.10
 -13  -4  -3    0.09    0.35
 -13  -4  -3   -0.62    0.80
  17 -13  -3   -0.61    0.64
  -4 -13  -3    0.98    1.09
  13 -17  -3    2.13    1.13
   4 -17  -3   -0.43    1.48
 -17  13   4   -0.23    0.90
 -17   4   4   -0.46    1.44
   4 -17   4    0.12    1.32
  -4 -13   4   -0.31    1.06
  13 -17   4    0.59    1.10
  17 -13   4   -0.24    1.24
 -13  -4   4    0.07    1.01
  -4 -13  -4   -0.08    0.53
 -13  -4  -4   -0.68    1.39
   4  13  -4    1.67    0.80
 -17   4  -4    0.71    1.67
  13   4  -4   -1.54    1.48
 -13  17  -4   -1.19    0.80
  17  -4  -4   -0.34    1.39
   4  13  -4    1.06    1.27
  -4  17  -4    0.25    1.46
 -13  17  -4    0.52    1.34
  -4 -13  -4    0.69    1.16
   4 -17  -4    1.39    1.40
  13 -17  -4   -0.58    1.24
 -13  -4  -4    0.33    0.41
  17 -13  -4    1.04    0.76
 -13  -4  -4    0.10    1.01
  17 -13  -4   -0.19    0.75
  -4 -13  -4   -1.14    1.15
  13 -17  -4   -1.26    1.08
   4 -17  -4    2.43    1.58
 -17   4   5    1.52    1.48
   4 -17   5   -2.41    1.42
  -4 -13   5    1.93    1.14
  13 -17   5    0.07    1.16
  17 -13   5   -0.26    1.07
 -13  -4   5    0.12    0.88
  -4  17  -5    1.26    0.76
   4  13  -5   -0.57    1.14
 -13  -4  -5    2.70    1.56
 -17   4  -5    1.04    1.77
  13   4  -5   -0.89    1.59
  17  -4  -5    1.52    0.91
 -17  13  -5    1.06    1.63
  13   4  -5    0.03    0.56
  -4 -13  -5    2.09    1.31
   4  13  -5   -0.21    1.37
 -17  13  -5    1.92    1.37
  -4  17  -5    0.70    1.56
   4 -17  -5   -0.96    1.50
 -13  17  -5   -2.03    1.49
  17 -13  -5    0.57    0.69
 -13  -4  -5    0.15    0.53
  13 -17  -5    1.38    1.33
 -13  -4  -5   -0.16    0.95
  17 -13  -5   -0.22    0.86
  -4 -13  -5   -1.34    1.20
  13 -17  -5    0.10    1.17
   4 -17  -5   -0.70    1.54
   4 -17   6   -0.40    1.51
  -4 -13   6    1.05    1.25
  13 -17   6    2.10    1.25
  17 -13   6   -1.45    1.67
 -13  -4   6    1.16    1.02
  -4  17  -6    0.06    1.43
  -4 -13  -6    0.16    0.53
   4  13  -6    1.25    1.60
  17  -4  -6    1.33    1.56
 -13  -4  -6    1.79    1.76
  13   4  -6    0.43    1.72
 -17   4  -6   -1.94    2.00
  17 -13  -6    1.82    1.47
  -4 -13  -6    0.03    1.46
  17 -13  -6    0.80    0.85
   4 -17  -6    1.10    1.56
  13 -17  -6    0.12    1.48
   4  13  -6    1.22    1.53
 -17  13  -6   -0.09    1.78
  -4  17  -6   -0.06    1.63
  13   4  -6    1.13    1.09
 -13  17  -6    0.57    1.57
 -13  -4  -6   -0.31    1.45
  17 -13  -6    0.63    0.97
  -4 -13  -6   -0.45    1.27
  13 -17  -6   -0.85    1.22
   4 -17  -6   -0.57    1.66
   4 -17   7   -1.00    1.58
  -4 -13   7    0.21    1.33
  13 -17   7   -0.83    1.33
  17 -13   7    0.10    1.84
 -13  -4   7    0.24    1.59
  -4  17  -7    0.17    2.25
   4  13  -7    2.14    2.27
  13   4  -7   -1.86    1.15
  -4 -13  -7   -0.30    0.64
  17  -4  -7    0.96    1.59
 -17   4  -7   -0.73    2.08
  17 -13  -7    2.50    1.63
 -13  -4  -7   -1.66    1.99
  -4 -13  -7    0.08    1.59
   4 -17  -7   -1.15    1.61
  13 -17  -7   -0.93    1.57
   4  13  -7   -2.72    1.66
  -4  17  -7   -3.31    1.69
 -13  17  -7    0.27    1.66
 -17  13  -7    1.62    1.45
  13   4  -7    1.18    1.62
 -13  -4  -7    1.65    1.18
  17 -13  -7   -0.32    1.03
  -4 -13  -7    1.89    1.35
  13 -17  -7   -2.04    1.31
   4 -17  -7    0.39    1.69
   4 -17   8    1.72    1.70
  -4 -13   8    0.57    1.51
  13 -17   8   -0.46    1.47
  17 -13   8    0.34    1.58
 -13  -4   8    0.82    1.36
  -4  17  -8    1.16    3.02
   4  13  -8   -1.44    3.02
  13   4  -8   -0.10    1.90
  17  -4  -8    1.09    1.76
  17 -13  -8    1.69    1.86
 -17   4  -8   -1.71    1.35
  -4  17  -8    1.20    1.78
 -13  17  -8    0.57    1.78
 -17  13  -8   -2.00    1.68
  13   4  -8   -0.30    2.39
 -13  -4  -8   -0.96    1.75
  17 -13  -8    1.56    1.17
  -4 -13  -8    1.50    1.46
  13 -17  -8   -0.66    1.39
   4 -17  -8   -0.17    1.78
 -13  18   0    0.63    0.44
 -13  -5   0    2.20    1.19
 -18   5   0    1.54    0.97
 -18  13   0    0.34    1.16
 -13  -5   1    3.13    1.24
 -18   5   1    4.48    1.61
 -18  13   1    2.79    1.16
  18 -13   1    1.78    0.54
 -13  -5  -1    3.76    1.25
 -13  18  -1    1.34    0.50
 -18   5  -1    4.39    1.10
 -18  13  -1    3.34    1.38
  18 -13  -1    3.05    0.69
 -13  -5  -1    2.20    0.59
 -13  -5  -1    1.81    0.52
 -13  -5   2    1.83    1.23
 -18   5   2    1.21    1.58
 -18  13   2    1.11    1.08
  18 -13   2    1.36    1.03
 -13  -5   2    1.30    0.88
 -13  -5   2    0.73    0.46
  -5 -13  -2    1.30    0.67
 -13  -5  -2    2.58    1.25
 -13  18  -2    0.43    0.58
 -18   5  -2    3.78    1.67
 -18  13  -2    2.57    1.37
   5 -18  -2    1.92    1.50
  13 -18  -2    2.94    1.22
  18 -13  -2    1.02    0.61
 -13  -5  -2    0.84    0.56
 -13  -5  -2    1.37    0.76
  18 -13  -2    0.09    0.63
 -13  -5   3    0.15    1.19
 -18   5   3    1.80    1.55
 -18  13   3    2.00    1.03
   5 -18   3   -0.62    1.42
  13 -18   3    1.86    1.16
  -5 -13   3    2.57    1.02
  18 -13   3   -0.42    1.21
 -13  -5   3    1.52    1.01
  -5 -13  -3    0.49    0.48
 -13  -5  -3   -0.74    1.32
 -18   5  -3    2.27    1.76
 -18  13  -3    0.80    1.49
 -13  18  -3    0.95    0.70
   5 -18  -3    0.99    1.48
  13 -18  -3    2.10    1.30
  -5 -13  -3   -0.04    1.10
  18 -13  -3    1.00    0.45
 -13  -5  -3    0.34    0.55
 -13  -5  -3    0.58    0.87
  18 -13  -3   -0.17    0.70
  -5 -13  -3   -0.83    1.12
  13 -18  -3   -0.26    1.30
   5 -18  -3    0.50    1.67
 -18  13   4    0.39    1.06
 -18   5   4    1.56    1.62
   5 -18   4    0.31    1.47
  13 -18   4    2.53    1.25
  -5 -13   4    1.80    1.14
  18 -13   4    2.69    1.43
 -13  -5   4    1.96    1.29
  -5 -13  -4    0.51    0.64
 -13  -5  -4    1.93    1.47
 -18   5  -4   -1.38    1.87
 -18  13  -4    1.85    1.62
  13   5  -4    1.45    1.63
   5  13  -4    1.10    0.92
  18  -5  -4    1.24    0.97
   5 -18  -4    3.50    1.57
  13 -18  -4    3.26    1.39
  -5 -13  -4    1.82    1.24
  18 -13  -4    0.96    0.68
 -13  -5  -4    0.11    0.65
 -13  -5  -4    1.60    1.04
  18 -13  -4    1.17    1.10
  -5 -13  -4    1.51    1.17
  13 -18  -4    1.88    1.30
   5 -18  -4    1.08    1.79
 -18   5   5    2.42    1.63
   5 -18   5    3.41    1.66
  13 -18   5    3.39    1.31
  -5 -13   5   -0.77    1.22
  18 -13   5    2.79    1.73
 -13  -5   5    0.19    1.50
 -13  -5  -5    2.89    1.67
   5  13  -5    0.09    1.25
 -18   5  -5    0.80    1.29
  13   5  -5    2.36    1.79
  18  -5  -5    3.84    1.67
 -18  13  -5    1.09    1.84
   5  13  -5    2.32    1.55
  -5  18  -5    4.35    1.73
 -13  18  -5    3.58    1.69
   5 -18  -5    1.42    1.67
 -13  -5  -5    0.88    0.62
  13 -18  -5    2.53    1.53
  -5 -13  -5   -0.48    1.40
  18 -13  -5    1.31    0.61
 -13  -5  -5    1.14    0.96
  18 -13  -5    2.13    1.28
  -5 -13  -5    1.03    1.25
  13 -18  -5    0.38    1.38
   5 -18  -5    4.79    1.78
   5 -18   6   -1.83    1.63
  13 -18   6    1.77    1.35
  -5 -13   6   -1.19    1.29
  18 -13   6    2.53    1.89
 -13  -5   6   -0.17    1.21
  -5 -13  -6    0.57    0.59
   5  13  -6    0.83    1.66
 -13  -5  -6    1.09    1.77
  13   5  -6   -0.97    1.88
 -18   5  -6    1.99    2.05
  18  -5  -6    1.71    1.63
  18 -13  -6    2.93    1.58
  -5  18  -6    0.88    1.78
   5 -18  -6    1.83    1.69
 -18  13  -6    0.74    1.14
  18 -13  -6    0.39    0.74
 -13  -5  -6    0.40    0.96
  13   5  -6   -1.87    1.16
 -13  18  -6    0.49    1.70
  13 -18  -6    1.19    1.58
  -5 -13  -6    1.16    1.49
   5  13  -6    0.49    1.65
 -13  -5  -6    0.64    1.06
  18 -13  -6    0.70    1.03
  -5 -13  -6    3.37    1.27
  13 -18  -6    0.65    1.35
   5 -18  -6    0.13    1.82
   5 -18   7   -1.61    1.75
  13 -18   7    0.49    1.47
  -5 -13   7    1.86    1.38
  18 -13   7    0.12    1.66
 -13  -5   7    3.13    1.38
   5  13  -7    1.90    2.35
  13   5  -7    0.50    2.11
  18  -5  -7    1.47    1.74
  18 -13  -7   -0.52    1.87
  18 -13  -7   -0.40    0.96
   5 -18  -7    0.15    1.75
  13 -18  -7    1.35    1.77
  -5 -13  -7    1.21    1.70
  -5  18  -7   -2.42    1.86
 -18  13  -7   -0.45    1.53
  13   5  -7    1.81    1.71
 -13  18  -7    1.29    1.85
   5  13  -7    1.69    1.82
 -13  -5  -7    3.10    1.57
  18 -13  -7    0.17    1.20
  -5 -13  -7    2.68    1.36
  13 -18  -7   -0.21    1.44
   5 -18  -7    1.40    1.87
 -13  -6   0   12.77    1.67
 -19  13   0   15.05    1.86
 -13  -6   1   -1.63    1.20
 -19  13   1    2.57    1.15
 -19  13  -1   -1.31    1.36
 -13  -6   2    2.65    1.35
 -19  13   2    5.97    1.29
 -19   6   2    3.97    1.12
  -6 -13  -2    2.53    0.79
 -13  -6  -2    3.61    1.34
 -19  13  -2    4.51    1.63
 -19   6  -2    7.25    1.96
   6 -19  -2    4.60    1.72
 -13  -6   3   -0.66    1.13
 -19   6   3    0.56    1.52
 -19  13   3   -0.70    1.08
  13 -19   3    0.66    1.20
   6 -19   3    2.33    1.47
  -6 -13   3    0.34    0.97
  -6 -13  -3   -0.17    0.49
 -13  -6  -3   -0.76    1.25
 -19   6  -3   -0.13    1.77
 -19  13  -3   -0.65    1.52
  -6 -13  -3    0.51    1.04
  13 -19  -3   -0.91    1.34
   6 -19  -3    1.53    1.52
  -6 -13  -3    1.10    1.01
  13 -19  -3   -0.31    1.36
   6 -19  -3   -1.73    1.68
 -19   6   4    4.41    1.78
 -19  13   4    3.22    1.25
  13 -19   4    1.37    1.43
   6 -19   4    4.77    1.70
  -6 -13   4    2.38    1.21
  -6 -13  -4    1.26    0.78
 -13  -6  -4    2.68    1.53
 -19   6  -4    5.37    1.37
 -19  13  -4    3.35    1.91
   6  13  -4    1.11    1.08
  13   6  -4    4.78    1.77
  -6 -13  -4    4.19    1.31
  13 -19  -4    4.94    1.61
   6 -19  -4    5.00    1.78
  -6 -13  -4    4.40    1.24
  13 -19  -4    2.78    1.54
   6 -19  -4    3.51    2.04
 -19   6   5   -0.17    1.62
  13 -19   5    0.71    1.37
   6 -19   5   -0.40    1.60
  -6 -13   5    0.33    1.17
  -6 -13  -5    1.01    0.75
 -13  -6  -5    0.20    1.55
 -19   6  -5   -1.23    2.05
 -19  13  -5    0.91    1.84
   6  13  -5    2.12    1.20
  13   6  -5   -0.05    1.81
  19  -6  -5    1.27    1.60
 -13  19  -5   -0.27    0.77
 -13  19  -5   -1.79    1.66
  -6  19  -5   -0.58    1.72
  -6 -13  -5    1.50    1.31
  13 -19  -5    1.46    1.55
   6 -19  -5    0.36    1.68
  -6 -13  -5   -0.38    1.14
  13 -19  -5   -0.71    1.42
   6 -19  -5    1.89    1.80
   6 -19   6    0.29    1.83
  13 -19   6    1.21    1.51
  -6 -13   6    0.75    1.37
   6  13  -6    0.98    1.82
 -13  -6  -6    3.83    1.88
 -19   6  -6    3.20    2.41
  13   6  -6    0.15    2.18
  19  -6  -6    3.74    1.86
 -19  13  -6    3.03    1.34
   6  13  -6    1.90    1.85
 -13  19  -6    3.63    1.93
  -6  19  -6    2.51    1.99
  -6 -13  -6    2.07    1.61
  13 -19  -6    2.94    1.82
   6 -19  -6    1.64    1.85
  -6 -13  -6    0.48    1.30
  13 -19  -6    0.89    1.54
   6 -19  -6    4.41    1.96
 -13  -7   0   -0.34    1.12
 -20  13   0   -0.57    1.37
 -13  -7   1    1.25    1.12
 -20  13   1    0.60    1.30
 -13  -7  -1   -0.38    1.18
 -20  13  -1    2.12    1.49
 -13  -7   2    0.62    1.13
 -20  13   2   -0.30    1.26
 -20   7   2    1.74    1.66
   7 -20   2    0.67    0.97
  -7 -13   2   -0.66    0.95
  -7 -13  -2    0.29    0.75
 -13  -7  -2   -0.62    1.15
 -20  13  -2    1.33    1.57
  -7 -13  -2    1.24    0.98
 -20   7   3   -0.28    1.00
 -20  13   3    1.70    1.19
   7 -20   3    0.72    1.49
  13 -20   3   -0.08    1.31
  -7 -13   3   -0.41    1.00
  -7 -13  -3   -0.16    0.55
 -13  -7  -3   -0.29    1.19
 -20   7  -3    1.62    1.16
 -20  13  -3   -1.60    1.63
   7 -20  -3    0.35    1.00
  13 -20  -3   -0.92    1.45
  -7 -13  -3    0.49    0.99
  -7 -13  -3    0.15    1.02
   7 -20  -3    1.15    1.89
  13 -20  -3   -1.31    1.49
 -20   7   4   -3.46    1.60
 -20  13   4    1.46    1.19
   7 -20   4   -0.27    1.50
  13 -20   4   -1.17    1.35
  -7 -13   4   -0.51    1.03
 -13  -7  -4   -2.11    1.31
 -20   7  -4    3.11    2.01
 -20  13  -4    0.54    1.80
   7  13  -4    0.28    0.95
  13   7  -4   -1.52    1.63
   7 -20  -4    1.17    1.63
  13 -20  -4    0.98    1.50
  -7 -13  -4    0.63    1.09
  -7 -13  -4    0.69    1.01
  13 -20  -4    0.08    1.46
   7 -20  -4    0.58    1.82
 -20   7   5   -0.72    1.66
   7 -20   5   -1.21    1.66
  13 -20   5   -0.66    1.46
  -7 -13   5    1.26    1.13
 -13  -7  -5   -0.16    1.46
 -20   7  -5    1.14    2.16
 -20  13  -5   -0.66    1.96
   7  13  -5    0.82    1.26
  13   7  -5   -0.47    1.90
  -7 -13  -5   -0.75    1.25
   7 -20  -5    1.55    1.72
  13 -20  -5   -1.37    1.64
  -7 -13  -5    0.61    1.08
  13 -20  -5    0.05    0.92
   7 -20  -5    2.68    1.88
 -13  -8   0    1.79    1.17
 -21  13   0    1.09    1.60
 -13  -8   1   -0.54    1.11
 -21  13   1    0.49    1.43
 -13  -8  -1    0.18    1.11
 -21  13  -1    0.44    1.55
 -13  -8   2   -1.03    1.10
 -21  13   2    2.32    1.39
 -21   8   2   -0.21    1.71
  -8 -13  -2   -0.86    0.81
 -13  -8  -2    1.04    1.14
 -21  13  -2    1.92    1.67
 -21   8  -2    0.84    1.19
  13 -21  -2   -0.11    1.54
  -8 -13  -2    0.33    0.93
  -8 -13  -2   -0.41    0.96
   8 -21  -2    2.99    1.92
 -21   8   3    1.07    1.71
 -21  13   3    2.40    1.36
   8 -21   3    1.21    1.05
  13 -21   3    0.48    1.49
  -8 -13   3    0.55    1.01
 -13  -8  -3   -0.10    1.19
 -21   8  -3    0.93    2.05
 -21  13  -3   -1.42    1.89
   8 -21  -3    1.04    1.75
  -8 -13  -3    1.96    1.01
  -8 -13  -3   -0.25    1.00
   8 -21  -3   -0.51    2.02
  13 -21  -3   -2.18    1.76
 -14  14   0    2.22    0.73
  14 -14   0    2.69    0.78
 -14   0   1    1.94    1.25
 -14  14   1    0.57    0.61
  14 -14   1   -0.10    0.76
 -14  14  -1   -0.73    0.97
  14 -14  -1    0.53    0.72
  14 -14  -1    0.42    0.79
 -14  14   2    5.21    1.03
 -14   0   2    7.37    0.96
   0 -14   2    5.81    1.36
  14 -14   2    6.52    0.98
 -14   0  -2    7.74    1.63
 -14  14  -2    6.07    1.09
  14 -14  -2    6.92    1.24
  14 -14  -2    7.53    1.01
 -14  14   3   -0.15    0.62
 -14   0   3   -1.50    1.25
   0 -14   3   -1.33    1.09
  14 -14   3    0.50    0.82
   0  14  -3   -0.32    0.57
 -14   0  -3   -1.29    1.37
  14   0  -3   -2.94    1.33
 -14  14  -3    0.06    0.98
   0  14  -3    1.39    1.20
   0 -14  -3    2.08    1.14
  14 -14  -3   -0.34    0.79
  14 -14  -3    0.16    0.77
   0 -14  -3    2.21    1.31
 -14   0   4    3.45    1.49
   0 -14   4    3.98    1.29
  14 -14   4    3.36    1.02
   0  14  -4    0.54    0.99
 -14   0  -4    3.35    1.04
  14   0  -4    4.41    1.54
   0 -14  -4    3.66    1.42
   0  14  -4    5.82    1.49
 -14  14  -4    2.74    1.78
  14 -14  -4    2.91    1.06
  14 -14  -4    2.84    0.95
   0 -14  -4    5.60    1.48
   0 -14   5    0.57    1.25
  14 -14   5    1.33    0.95
 -14   0   5   -0.14    0.80
   0  14  -5    1.61    1.05
  14   0  -5   -1.01    1.42
 -14   0  -5    0.55    1.60
  14 -14  -5    1.07    0.78
   0 -14  -5   -1.53    1.29
  14 -14  -5   -1.48    1.09
   0  14  -5    0.98    1.36
 -14  14  -5   -1.34    1.65
  14   0  -5    0.24    0.53
 -14   0  -5   -0.24    0.81
  14 -14  -5   -0.64    0.90
   0 -14  -5    0.76    1.35
   0 -14   6    5.08    0.91
  14 -14   6    4.09    1.23
 -14   0   6    3.68    1.26
   0  14  -6    3.39    1.86
  14   0  -6    5.62    1.68
 -14   0  -6    4.65    2.06
  14 -14  -6    2.91    1.12
   0  14  -6    5.24    1.66
 -14  14  -6    1.80    1.59
  14   0  -6    2.36    1.13
 -14   0  -6    1.72    0.94
  14 -14  -6    1.52    1.56
   0 -14  -6    4.72    1.63
   0 -14   7    0.70    0.89
  14 -14   7    1.53    1.22
 -14   0   7    1.12    1.43
   0  14  -7    0.46    3.30
  14   0  -7    1.16    1.60
  14 -14  -7    2.23    1.20
 -14   0  -7    0.75    1.20
   0  14  -7    1.42    0.96
 -14  14  -7   -0.32    1.51
  14   0  -7    0.01    1.29
 -14   0  -7    1.33    1.02
  14 -14  -7   -0.59    1.52
   0 -14  -7    1.89    1.50
   0 -14   8    0.05    1.47
  14 -14   8    0.25    1.29
 -14   0   8    1.92    1.23
   0  14  -8   -0.99    2.75
  14   0  -8   -0.38    1.64
  14 -14  -8    0.47    2.14
   0  14  -8   -0.20    1.62
 -14  14  -8    1.26    1.60
  14   0  -8    1.75    2.34
 -14   0  -8    0.73    1.19
  14 -14  -8    0.98    1.19
   0 -14  -8   -1.79    1.61
   0 -14   9    1.80    1.64
  14 -14   9   -1.29    1.44
 -14   0   9    0.13    1.89
  14   0   9    2.77    2.32
   0  14  -9   -0.69    2.57
  14   0  -9    1.05    1.74
  14 -14  -9    1.04    1.88
   0  14  -9   -2.42    1.05
 -14  14  -9   -1.73    1.76
  14   0  -9    2.20    2.34
 -14   0  -9    0.56    1.36
  14 -14  -9   -1.49    1.32
   0 -14  -9    0.68    1.65
 -15  14   0   14.75    1.25
 -14  15   0   12.95    0.99
  15 -14   0   19.04    1.12
 -14  15   1   15.85    1.35
 -15  14   1   17.65    1.24
 -14  -1   1   21.68    2.02
  15 -14   1   20.92    1.27
 -15  14  -1   14.54    1.50
  14 -15  -1   24.88    1.45
  15 -14  -1   17.36    1.21
  15 -14  -1   19.94    1.30
  14 -15  -1   24.83    1.57
 -14  15   2    7.04    0.78
 -15  14   2    7.20    0.96
 -15   1   2    8.22    1.09
 -14  -1   2    9.60    1.66
   1 -15   2   13.20    1.61
  14 -15   2    7.20    1.11
  15 -14   2    7.18    0.99
 -15   1  -2    8.06    1.85
 -15  14  -2    6.32    1.27
  14 -15  -2   12.70    1.21
  15 -14  -2    7.37    1.01
 -15  14   3    9.74    1.06
 -15   1   3   13.56    1.23
 -14  -1   3   12.47    1.84
   1 -15   3   12.94    1.70
  -1 -14   3   13.91    1.58
  14 -15   3   12.09    1.27
  15 -14   3   11.15    1.20
 -15   1  -3   14.61    1.36
 -14  -1  -3   16.14    2.05
 -15  14  -3   12.83    1.59
 -14  15  -3    8.81    1.35
  15  -1  -3   10.80    1.90
  14   1  -3   11.16    1.93
   1 -15  -3   15.33    1.79
  15 -14  -3    8.54    1.12
  14 -15  -3   11.40    1.76
  -1 -14  -3   14.01    1.73
  15 -14  -3    8.92    1.48
  14 -15  -3   10.64    1.30
  -1 -14  -3   15.83    1.93
   1 -15  -3   16.05    1.99
 -15   1   4    7.62    1.10
 -14  -1   4    8.31    1.67
   1 -15   4    9.72    1.57
  -1 -14   4    8.35    0.92
  14 -15   4    4.76    1.23
  15 -14   4    5.32    1.14
 -15   1  -4    6.29    2.01
 -14  -1  -4    7.36    1.92
  15  -1  -4    9.12    1.78
 -15  14  -4    8.01    1.62
  14   1  -4    6.12    1.83
 -14  15  -4    4.71    1.47
  -1  15  -4    6.38    1.78
 -15  14  -4    7.64    1.51
 -14  15  -4    7.93    1.59
   1  14  -4    5.54    1.71
   1 -15  -4    8.56    1.72
  15 -14  -4    3.41    1.44
  14 -15  -4    7.14    1.32
  -1 -14  -4    8.02    1.59
  15 -14  -4    6.37    1.05
  14 -15  -4    6.41    1.18
   1 -15  -4    5.73    1.82
  -1 -14  -4    8.02    1.66
 -15   1   5   19.83    1.46
   1 -15   5   18.39    2.09
  -1 -14   5   18.77    1.99
  14 -15   5   14.53    1.73
  15 -14   5   14.11    1.65
   1  14  -5   10.44    2.25
  15  -1  -5   20.51    2.34
 -14  -1  -5   24.02    2.64
  14   1  -5   18.25    1.58
 -15   1  -5   23.64    2.76
  -1  15  -5   21.83    2.37
   1 -15  -5   20.34    1.48
  15 -14  -5   13.75    2.22
  14 -15  -5   16.96    2.00
  -1 -14  -5   18.43    2.21
   1  14  -5   21.38    2.28
 -15  14  -5   18.90    2.14
 -14  15  -5   18.93    2.26
  14 -15  -5   12.84    1.61
   1 -15  -5   21.46    2.32
  -1 -14  -5   19.89    2.19
   1 -15   6    3.06    1.57
  -1 -14   6    2.63    1.52
  14 -15   6    2.84    1.27
  15 -14   6    2.07    1.24
 -14  -1   6    1.73    1.32
 -15   1   6    5.65    1.02
  -1  15  -6    1.95    1.83
   1  14  -6    2.29    1.80
  14   1  -6    3.62    1.77
  15  -1  -6    3.63    1.71
  15 -14  -6    2.61    1.65
 -14  -1  -6    6.36    1.29
  14 -15  -6    1.59    0.96
   1 -15  -6    4.06    1.65
  14 -15  -6    5.68    1.49
  -1 -14  -6    4.45    1.62
  -1  15  -6    4.54    1.70
 -15  14  -6    3.96    1.58
 -14  15  -6    1.15    1.66
   1  14  -6    6.00    1.68
  14   1  -6    1.27    1.06
 -15   1  -6    1.99    0.86
 -14  -1  -6    1.97    0.99
  15 -14  -6    3.59    1.12
  14 -15  -6    4.28    1.18
   1 -15  -6    5.01    1.70
  -1 -14  -6    4.43    1.57
   1 -15   7    6.59    1.83
  -1 -14   7    8.39    1.77
  14 -15   7    6.81    1.53
  15 -14   7    5.41    1.50
 -14  -1   7    5.48    1.79
  -1  15  -7    2.52    4.04
   1  14  -7    6.63    3.79
  15  -1  -7    8.03    1.28
  14   1  -7    6.61    2.01
  15 -14  -7    6.95    1.63
  14 -15  -7    5.84    1.26
  -1  15  -7    9.32    1.97
 -15  14  -7    6.73    1.94
 -14  15  -7    9.40    1.95
   1  14  -7    8.04    1.95
  14   1  -7    3.74    1.97
 -15   1  -7    1.69    1.59
 -14  -1  -7    3.09    1.31
  15 -14  -7    6.19    1.34
  14 -15  -7    5.57    1.41
   1 -15  -7    4.86    1.93
  -1 -14  -7    3.98    1.83
   1 -15   8    5.98    1.68
  -1 -14   8    2.59    1.65
  14 -15   8    1.20    1.42
  15 -14   8    0.52    1.45
 -14  -1   8   -0.52    1.81
  15  -1   8    1.83    1.60
  -1  15  -8    1.09    3.28
   1  14  -8    4.63    3.25
  14   1  -8    2.71    1.85
  15  -1  -8    0.51    1.82
  15 -14  -8    2.46    1.85
  14 -15  -8    0.54    1.36
  -1  15  -8    4.06    1.85
   1  14  -8    3.13    1.80
 -15  14  -8    2.95    1.82
 -14  15  -8    2.62    1.85
  14   1  -8    1.69    2.52
 -15   1  -8    2.45    1.65
 -14  -1  -8    1.88    1.27
  15 -14  -8    2.18    1.27
  14 -15  -8    0.25    1.31
  -1 -14  -8   -0.39    1.67
   1 -15  -8    3.00    1.72
   1 -15   9    4.84    1.94
  -1 -14   9    4.50    1.18
  14 -15   9    4.30    1.71
  15 -14   9    1.71    1.69
 -14  -1   9    3.01    1.72
  15  -1   9    0.20    2.60
  -1  15  -9    2.28    4.50
   1  14  -9    6.12    4.82
  15  -1  -9    1.40    2.07
  14   1  -9    5.85    2.05
  15 -14  -9    3.89    2.25
  14 -15  -9    4.13    2.38
  -1  15  -9    4.13    2.02
 -15  14  -9    2.83    2.11
 -14  15  -9    2.71    2.10
   1  14  -9    5.39    2.00
  14   1  -9    4.54    2.79
 -15   1  -9    1.07    1.52
 -14  -1  -9    0.79    2.07
  15 -14  -9    1.74    1.48
  14 -15  -9    2.58    1.51
  -1 -14  -9    1.50    1.93
   1 -15  -9    1.75    1.99
 -14  -2   0    4.17    1.38
 -14  16   0    2.68    0.78
 -16  14   0    2.38    0.94
 -14  16   1   -0.10    0.50
 -14  -2   1    1.46    1.27
 -16   2   1    0.84    1.41
 -16  14   1    1.51    0.78
  -2 -14   1    0.05    0.64
 -16   2  -1    1.03    0.88
 -14  16  -1    0.04    0.77
 -16  14  -1    1.82    0.92
 -14  16   2    0.73    0.53
 -16  14   2    1.30    0.80
 -14  -2   2    0.64    1.29
 -16   2   2    2.05    1.45
  -2 -14   2    0.95    1.13
  16 -14   2    1.12    0.98
 -14  -2  -2   -0.10    1.34
 -16   2  -2    2.64    0.93
 -16  14  -2   -0.66    1.10
 -14  16  -2    0.84    0.68
  14 -16  -2    2.03    0.95
  16 -14  -2    1.18    0.83
  16 -14  -2    1.24    0.69
  14 -16  -2    1.85    1.02
 -16  14   3   -1.20    1.04
 -14  -2   3    0.43    1.25
 -16   2   3   -0.65    1.37
  -2 -14   3    1.96    1.06
   2 -16   3   -2.09    1.22
  14 -16   3    0.31    0.92
  16 -14   3    0.16    0.75
 -14  -2  -3   -0.44    1.35
 -16   2  -3   -1.67    1.55
 -16  14  -3    0.83    1.14
   2  14  -3    0.40    0.65
  -2  16  -3   -0.03    0.29
  16  -2  -3    1.34    0.82
  14   2  -3   -0.08    1.35
  -2 -14  -3    0.18    1.15
  14 -16  -3    0.03    0.96
   2 -16  -3    0.43    1.28
  16 -14  -3   -0.27    0.63
  16 -14  -3   -0.10    0.69
  14 -16  -3   -0.94    0.94
  -2 -14  -3    1.08    0.78
   2 -16  -3   -0.92    1.46
 -14  -2   4    2.69    1.34
 -16   2   4    0.57    1.47
  -2 -14   4    1.93    1.17
   2 -16   4    0.42    1.31
  14 -16   4    1.29    1.05
  16 -14   4    0.89    0.90
 -14  -2   4    0.99    0.72
  -2  16  -4    0.42    0.46
   2  14  -4    1.34    0.96
 -14  -2  -4    3.41    1.57
 -16   2  -4    2.28    1.71
  16  -2  -4    1.10    1.50
 -16  14  -4    2.13    1.39
  14   2  -4    3.91    1.53
 -14  16  -4    0.76    1.07
   2  14  -4    3.21    1.37
 -14  16  -4    0.13    1.36
  -2  16  -4    3.03    1.48
  -2 -14  -4    2.58    1.30
  14 -16  -4   -0.69    1.16
   2 -16  -4    0.83    0.88
  16 -14  -4    0.31    0.76
 -14  -2  -4    0.94    0.39
 -14  -2  -4    1.05    0.52
  16 -14  -4   -0.26    1.08
  14 -16  -4    1.03    1.04
  -2 -14  -4    2.03    1.35
   2 -16  -4    1.71    1.61
 -16   2   5   -1.53    1.45
  -2 -14   5   -0.97    1.20
   2 -16   5    1.29    1.34
  14 -16   5    1.01    1.05
  16 -14   5    0.18    1.00
 -14  -2   5    1.63    0.91
  -2  16  -5   -0.06    1.04
   2  14  -5   -0.29    0.99
 -16   2  -5    0.45    1.74
 -14  -2  -5    0.06    1.64
  14   2  -5    1.01    1.52
  16  -2  -5    1.79    1.47
 -16  14  -5   -1.55    1.47
  -2 -14  -5   -0.36    1.35
   2  14  -5   -1.39    1.43
 -16  14  -5   -0.48    1.26
  16 -14  -5    0.69    0.89
 -14  -2  -5    0.80    0.54
  14   2  -5    0.33    0.52
 -14  16  -5    0.32    1.40
  14 -16  -5    2.31    1.23
  -2  16  -5    1.77    1.51
   2 -16  -5    0.02    1.42
 -14  -2  -5   -0.15    0.71
  16 -14  -5   -0.72    0.88
  14 -16  -5   -0.21    1.03
  -2 -14  -5   -0.36    1.36
   2 -16  -5    0.46    1.50
  -2 -14   6   -0.11    1.27
   2 -16   6   -0.24    1.45
  14 -16   6    1.17    1.15
  16 -14   6    0.13    1.12
 -14  -2   6    1.49    1.20
  -2  16  -6    1.69    1.38
   2  14  -6    1.27    1.49
  16  -2  -6    0.37    0.94
  14   2  -6    1.54    1.63
 -16   2  -6   -4.72    1.98
  16 -14  -6    0.54    1.22
 -14  -2  -6   -0.18    1.87
  16 -14  -6    0.47    1.10
  -2 -14  -6    1.51    1.49
  14 -16  -6   -1.73    1.40
   2 -16  -6    2.37    1.52
   2  14  -6    1.05    1.51
 -16  14  -6    0.49    1.39
 -14  16  -6    0.17    1.53
  -2  16  -6   -2.54    1.62
  14   2  -6    0.90    0.66
 -14  -2  -6    0.50    0.85
  16 -14  -6   -0.12    0.97
  14 -16  -6    0.84    1.12
  -2 -14  -6   -0.88    1.40
   2 -16  -6    0.53    1.59
  -2 -14   7   -1.23    1.40
   2 -16   7    1.03    1.49
  14 -16   7    0.80    1.23
  16 -14   7   -0.77    1.20
 -14  -2   7   -1.11    1.45
  -2  16  -7    2.78    2.26
   2  14  -7   -0.02    2.89
  16  -2  -7    0.33    1.61
  14   2  -7   -1.35    1.05
 -16   2  -7    1.10    2.05
  16 -14  -7   -1.42    1.52
  14 -16  -7   -0.11    1.07
  -2 -14  -7    0.34    0.99
   2 -16  -7   -0.11    1.53
   2  14  -7    0.96    1.60
  -2  16  -7   -1.14    1.62
 -16  14  -7    1.04    1.49
 -14  16  -7    3.15    1.59
  14   2  -7    0.71    1.42
 -14  -2  -7    1.24    1.14
  16 -14  -7    0.85    1.06
  14 -16  -7    1.41    1.18
  -2 -14  -7   -0.25    1.45
   2 -16  -7   -3.37    1.62
  -2 -14   8    0.25    1.53
   2 -16   8   -1.01    1.68
  14 -16   8    0.62    1.41
  16 -14   8   -0.01    1.39
 -14  -2   8    0.18    1.32
  -2  16  -8    5.84    3.20
   2  14  -8   -0.95    3.07
  16  -2  -8   -1.05    1.09
  14   2  -8    2.46    1.83
  16 -14  -8    2.17    2.45
  14 -16  -8    1.98    1.01
 -16   2  -8    0.05    1.34
   2  14  -8   -1.64    1.80
 -14  16  -8   -0.20    1.83
  -2  16  -8    1.20    1.82
 -16  14  -8   -0.83    1.73
  14   2  -8   -1.11    2.29
 -14  -2  -8    1.26    1.79
  16 -14  -8    2.13    1.57
  14 -16  -8   -0.12    1.33
  -2 -14  -8    1.08    0.97
   2 -16  -8    1.74    1.73
 -14  17   0   -0.27    0.45
 -14  -3   0    1.92    1.16
 -17  14   0   -0.18    0.90
 -14  17   1    0.14    0.62
 -14  -3   1    2.19    1.24
 -17  14   1    0.48    0.86
 -17   3   1   -0.16    0.86
 -14  -3  -1   -0.68    0.79
 -14  17  -1    1.06    0.66
 -17  14  -1    0.78    1.03
  17 -14  -1    1.88    0.82
 -14  -3   2    1.62    1.24
 -17   3   2    1.24    1.46
 -17  14   2    1.11    0.85
  17 -14   2    0.28    0.70
 -14  -3  -2   -1.53    1.31
 -17   3  -2    0.41    1.53
 -17  14  -2   -0.71    1.14
  -3 -14  -2   -0.11    1.12
  17 -14  -2    0.41    0.55
  17 -14  -2    0.76    0.64
 -17  14   3    1.21    0.86
 -14  -3   3    1.00    1.28
 -17   3   3   -1.17    1.49
   3 -17   3    0.89    1.30
  -3 -14   3    2.10    1.06
  14 -17   3    0.16    1.00
  17 -14   3   -0.57    1.06
  -3 -14  -3    0.07    0.43
 -14  -3  -3   -1.04    1.39
 -17   3  -3   -1.07    1.65
 -17  14  -3    0.12    1.30
 -14  17  -3    1.34    0.69
   3  14  -3    1.04    0.52
  14   3  -3   -0.42    0.88
   3 -17  -3   -0.43    1.37
  -3 -14  -3    0.72    1.17
  17 -14  -3    0.08    0.58
  14 -17  -3   -0.32    1.11
  17 -14  -3    0.05    0.69
  14 -17  -3    0.43    1.07
  -3 -14  -3    1.57    1.26
   3 -17  -3    1.55    1.53
 -14  -3   4    0.36    1.29
 -17   3   4   -1.15    1.54
   3 -17   4    0.51    1.37
  -3 -14   4    0.82    1.15
  14 -17   4    0.64    1.07
  17 -14   4   -0.19    0.90
 -17   3  -4    1.08    1.75
 -14  -3  -4    1.30    1.53
 -17  14  -4    2.12    1.40
   3  14  -4    0.45    0.94
  14   3  -4   -0.22    1.56
 -14  17  -4    0.94    1.20
  17  -3  -4    0.15    1.46
  -3  17  -4   -0.19    0.94
   3 -17  -4    1.03    1.44
  -3 -14  -4    0.39    1.27
  17 -14  -4    0.05    0.65
  14 -17  -4   -0.56    1.21
  17 -14  -4    0.36    0.77
  14 -17  -4    0.66    1.10
  -3 -14  -4    0.33    1.24
   3 -17  -4    1.23    1.63
 -17   3   5    0.06    1.52
   3 -17   5   -0.02    1.43
  -3 -14   5    1.40    1.22
  14 -17   5    1.65    1.13
  17 -14   5   -0.32    1.03
   3  14  -5    2.03    0.99
 -14  -3  -5   -2.09    1.71
 -17   3  -5    0.70    1.13
  14   3  -5    1.46    1.61
  17  -3  -5   -1.27    0.96
 -17  14  -5    0.47    1.64
  -3  17  -5    0.90    1.60
 -17  14  -5   -0.17    1.18
   3  14  -5    3.47    1.45
 -14  17  -5    2.63    1.48
   3 -17  -5   -1.24    1.50
  17 -14  -5    0.99    1.04
  -3 -14  -5    0.84    1.41
  14 -17  -5    0.09    1.33
  17 -14  -5   -0.11    1.17
  14 -17  -5    0.74    1.11
  -3 -14  -5   -1.66    1.32
   3 -17  -5   -0.99    1.63
   3 -17   6    1.48    1.54
  -3 -14   6    0.18    1.33
  14 -17   6    0.54    1.27
  17 -14   6   -1.04    1.21
  -3  17  -6    1.23    1.20
   3  14  -6    0.71    1.49
  17  -3  -6    1.67    1.62
 -14  -3  -6    1.21    1.89
  14   3  -6   -0.23    1.72
 -17   3  -6    0.59    2.09
  17 -14  -6    1.45    1.33
  -3  17  -6   -0.54    1.74
   3 -17  -6   -0.05    0.99
  17 -14  -6    1.59    1.32
  -3 -14  -6    1.74    1.55
   3  14  -6    3.14    1.62
 -14  17  -6    3.37    1.61
  14 -17  -6    3.16    1.51
 -17  14  -6    0.01    1.55
  17 -14  -6   -0.13    1.31
  14 -17  -6   -1.69    1.22
  -3 -14  -6    0.89    1.38
   3 -17  -6    2.63    1.73
   3 -17   7   -0.09    1.61
  -3 -14   7    1.03    1.37
  14 -17   7    1.15    1.33
  17 -14   7   -0.35    1.34
  -3  17  -7   -0.99    2.74
   3  14  -7    1.42    2.19
  14   3  -7    1.53    1.84
  17  -3  -7   -2.16    1.67
  17 -14  -7    1.14    2.21
   3 -17  -7   -0.94    1.63
  17 -14  -7    1.76    1.22
  -3 -14  -7    2.10    1.66
  14 -17  -7    0.27    1.61
  -3  17  -7    1.34    1.73
 -17  14  -7    0.90    1.59
   3  14  -7   -0.37    1.05
 -14  17  -7   -0.41    1.74
  17 -14  -7    0.01    1.07
  14 -17  -7    0.05    1.29
  -3 -14  -7    0.39    1.42
   3 -17  -7   -1.89    1.75
   3 -17   8   -0.42    1.71
  -3 -14   8    0.17    1.54
  14 -17   8    0.36    0.88
  17 -14   8    0.92    2.00
  -3  17  -8    2.17    3.06
   3  14  -8    0.45    2.99
  17  -3  -8    1.93    1.77
  14   3  -8    0.39    1.93
  17 -14  -8    4.07    1.88
   3 -17  -8   -0.04    1.08
  -3  17  -8   -1.09    1.83
 -17  14  -8    0.21    1.75
   3  14  -8   -1.63    1.86
 -14  17  -8    1.09    1.81
  17 -14  -8   -1.66    1.18
  14 -17  -8   -0.19    1.35
  -3 -14  -8    1.54    1.53
   3 -17  -8    3.18    1.83
 -14  -4   0   11.56    1.69
 -18  14   0    9.92    1.43
 -14  -4   1    3.97    1.43
 -18  14   1    3.73    1.11
 -18  14  -1    2.50    1.78
  18 -14  -1    3.68    0.94
 -14  -4   2    3.06    1.46
 -18  14   2    3.79    1.12
 -18   4   2    6.35    1.11
  18 -14   2    2.69    0.85
 -14  -4  -2    4.70    1.54
 -18   4  -2    6.51    1.97
 -18  14  -2    5.15    1.49
   4 -18  -2    7.21    1.66
 -18  14   3    1.57    1.00
 -14  -4   3    1.60    1.33
 -18   4   3    2.35    1.60
   4 -18   3    2.20    1.47
  -4 -14   3    1.52    1.14
  14 -18   3    2.53    1.15
  18 -14   3    1.19    1.17
 -14  -4  -3    1.23    1.48
 -18   4  -3   -0.51    1.83
 -18  14  -3    0.01    1.51
   4 -18  -3    1.13    1.54
  -4 -14  -3    1.80    1.26
  14 -18  -3    1.92    1.28
  18 -14  -3    0.69    0.54
  18 -14  -3    0.90    0.74
  -4 -14  -3   -0.03    1.29
  14 -18  -3    2.56    1.28
   4 -18  -3    2.79    1.75
 -18  14   4    2.30    1.02
 -18   4   4    2.97    1.72
   4 -18   4    2.76    1.57
  -4 -14   4    1.63    1.22
  14 -18   4    2.86    1.25
  18 -14   4    1.50    1.09
 -14  -4  -4    2.72    1.67
 -18   4  -4    4.33    2.02
 -18  14  -4    0.29    1.70
   4  14  -4    1.16    0.82
  14   4  -4    4.57    1.76
 -14  18  -4    1.29    0.85
  -4 -14  -4    2.75    1.37
   4 -18  -4    3.25    1.64
  14 -18  -4    3.15    1.44
  18 -14  -4    0.09    0.83
  18 -14  -4    1.16    0.87
  -4 -14  -4    1.03    1.38
  14 -18  -4    3.11    1.32
   4 -18  -4    6.72    1.87
 -18   4   5    5.31    1.83
   4 -18   5    6.07    1.81
  -4 -14   5    5.85    1.42
  14 -18   5    4.32    1.44
  18 -14   5    2.98    1.38
   4  14  -5    3.05    1.24
 -14  -4  -5    5.45    2.07
 -18   4  -5    7.64    2.27
  18  -4  -5    7.60    1.90
  14   4  -5    3.85    2.08
 -14  18  -5    2.39    1.22
   4  14  -5    7.16    1.80
  -4  18  -5    6.80    1.98
 -14  18  -5    8.08    1.88
  -4 -14  -5    5.08    1.66
   4 -18  -5    5.23    1.16
  14 -18  -5    1.72    1.73
  18 -14  -5    1.70    1.41
  -4 -14  -5    4.94    1.53
  14 -18  -5    5.13    1.47
   4 -18  -5    6.17    2.02
   4 -18   6    0.55    1.67
  -4 -14   6    1.65    1.38
  14 -18   6   -0.78    1.38
  18 -14   6    1.01    1.84
   4  14  -6    0.19    1.54
 -18   4  -6    4.16    2.21
 -14  -4  -6    2.90    2.01
  14   4  -6    1.51    1.96
  18  -4  -6    1.76    1.76
  -4 -14  -6    0.13    1.67
   4  14  -6    0.48    1.76
 -18  14  -6    0.51    1.82
  -4  18  -6    4.26    1.14
   4 -18  -6    1.85    1.76
 -14  18  -6    2.32    1.81
  14 -18  -6    1.24    1.67
  18 -14  -6    1.01    0.88
  18 -14  -6    0.28    1.06
  -4 -14  -6    2.40    1.40
  14 -18  -6    1.73    1.36
   4 -18  -6    2.46    1.94
   4 -18   7    1.01    1.80
  -4 -14   7    4.33    1.52
  14 -18   7    3.38    1.52
  18 -14   7    2.59    2.14
   4  14  -7    4.95    2.37
  18  -4  -7    2.65    1.87
  14   4  -7    2.19    2.11
 -18   4  -7    2.07    2.45
  18 -14  -7   -0.13    1.97
  -4 -14  -7    2.03    1.85
  18 -14  -7    1.86    1.15
   4 -18  -7    2.23    1.89
  14 -18  -7    3.49    1.85
   4  14  -7    3.06    1.96
 -18  14  -7    2.78    1.79
  -4  18  -7    3.19    1.99
 -14  18  -7    2.33    1.97
  18 -14  -7    1.56    1.18
  -4 -14  -7    0.46    1.57
  14 -18  -7    0.57    1.46
   4 -18  -7    1.44    1.99
 -14  -5   0    0.04    1.22
 -19  14   0    0.73    1.15
   5 -19   0   -1.02    0.89
 -14  -5   1    1.62    1.28
 -19  14   1    0.55    1.11
  19 -14   1    1.13    0.71
 -14  -5  -1    1.32    1.28
 -19  14  -1    0.90    1.34
 -14  -5   2   -1.05    1.24
 -19  14   2    0.61    1.05
 -19   5   2   -0.02    1.00
  19 -14   2    0.47    1.02
  19 -14   2    0.71    0.53
 -14  -5  -2    0.61    0.78
 -19  14  -2   -0.33    1.36
   5 -19  -2    1.79    1.53
  19 -14  -2   -0.27    0.63
  19 -14  -2   -0.08    0.64
 -14  -5   3    1.81    1.26
 -19  14   3    0.70    1.07
 -19   5   3   -0.20    1.02
   5 -19   3    2.07    1.52
  14 -19   3    0.63    1.20
  -5 -14   3    0.44    1.08
  19 -14   3    0.31    1.25
 -14  -5  -3    2.23    1.39
 -19   5  -3   -0.99    1.87
 -19  14  -3    2.43    1.55
   5 -19  -3    1.34    1.51
  14 -19  -3    0.05    1.31
  -5 -14  -3   -0.37    1.17
  19 -14  -3    0.44    0.47
  19 -14  -3   -1.30    0.97
  -5 -14  -3    0.26    1.60
   5 -19  -3   -0.72    1.78
  14 -19  -3    1.36    1.33
 -19  14   4   -1.09    1.05
 -19   5   4    0.07    1.71
   5 -19   4    1.11    1.51
  14 -19   4    0.94    1.25
  -5 -14   4    0.64    1.16
  19 -14   4    0.36    1.11
 -14  -5  -4    1.07    1.52
 -19   5  -4    2.16    1.99
 -19  14  -4    1.90    1.68
   5  14  -4    0.29    0.84
  14   5  -4    0.32    1.71
   5 -19  -4    0.15    1.02
  14 -19  -4    0.09    1.44
  -5 -14  -4    1.79    1.29
  19 -14  -4    0.43    0.51
  19 -14  -4    1.54    1.08
  -5 -14  -4    1.64    1.25
  14 -19  -4    2.34    1.31
   5 -19  -4   -0.20    1.82
 -19   5   5    0.39    1.65
   5 -19   5    0.46    1.61
  14 -19   5    1.54    1.32
  -5 -14   5    1.02    1.20
  19 -14   5   -0.13    1.30
 -14  -5  -5    1.42    1.67
 -19   5  -5   -0.34    2.10
   5  14  -5   -0.07    1.08
  14   5  -5   -0.34    1.85
 -14  19  -5    0.12    0.88
  19  -5  -5    0.25    1.64
  -5  19  -5    1.27    1.06
   5 -19  -5    0.81    1.68
  14 -19  -5    1.34    1.51
  -5 -14  -5    0.30    1.41
  19 -14  -5    0.52    0.58
  19 -14  -5   -0.34    1.24
  -5 -14  -5   -0.84    1.27
  14 -19  -5    0.64    1.34
   5 -19  -5    0.61    1.84
   5 -19   6    2.75    1.70
  14 -19   6    1.14    1.39
  -5 -14   6   -0.37    1.31
  19 -14   6    0.75    1.97
 -14  -5  -6    0.61    1.92
   5  14  -6   -0.62    1.50
 -19   5  -6    1.19    1.35
  14   5  -6    1.28    2.03
  19  -5  -6   -2.03    1.78
 -19  14  -6   -2.42    2.03
 -19  14  -6    1.87    1.07
   5  14  -6   -0.70    1.75
  -5  19  -6   -1.45    1.89
 -14  19  -6    0.11    1.79
   5 -19  -6   -0.78    1.78
  19 -14  -6    0.59    0.69
  14 -19  -6   -0.02    1.67
  -5 -14  -6    0.83    1.58
  19 -14  -6    1.81    1.02
  -5 -14  -6   -0.85    1.32
  14 -19  -6    1.26    1.39
   5 -19  -6   -1.96    1.94
 -14  -6   0    2.37    1.34
 -20  14   0    1.69    1.41
 -14  -6   1    4.14    1.34
 -20  14   1    3.66    1.35
 -14  -6  -1    2.22    1.37
 -20  14  -1    1.69    1.59
 -14  -6   2   -0.23    1.25
 -20  14   2   -1.02    1.21
 -20   6   2   -0.38    1.76
   6 -20   2    0.75    1.01
  -6 -14   2    1.62    1.04
 -14  -6  -2    0.80    1.30
 -20  14  -2   -0.13    1.59
 -20   6  -2    1.51    1.87
  14 -20  -2    2.17    1.36
 -14  -6   3    2.54    1.23
 -20  14   3   -0.21    1.18
 -20   6   3    1.61    1.06
   6 -20   3   -0.09    1.66
  14 -20   3   -0.11    1.32
  -6 -14   3    1.55    1.11
 -14  -6  -3    0.28    1.39
 -20   6  -3    0.05    1.97
 -20  14  -3    1.85    1.69
  14 -20  -3    0.95    1.46
   6 -20  -3   -0.01    1.05
  -6 -14  -3    0.73    1.17
  -6 -14  -3    1.07    1.14
  14 -20  -3   -2.24    1.47
   6 -20  -3   -1.80    1.99
 -20  14   4   -0.75    1.15
 -20   6   4    0.19    1.12
   6 -20   4    1.17    1.67
  14 -20   4    1.84    1.36
  -6 -14   4   -1.35    1.15
 -14  -6  -4    1.79    1.49
 -20   6  -4   -0.98    2.14
 -20  14  -4   -0.62    1.84
   6 -20  -4    1.72    1.73
  -6 -14  -4    0.80    1.28
  14 -20  -4   -0.52    1.58
  -6 -14  -4    1.32    1.18
  14 -20  -4    1.75    1.44
   6 -20  -4    1.64    1.92
 -14  -7   0    7.15    1.58
 -21  14   0    6.45    1.84
 -14  -7   1    4.55    1.58
 -21  14   1    7.63    1.72
 -14  -7  -1    6.31    1.56
 -21  14  -1    7.31    1.93
 -14  -7   2   -0.69    1.35
 -21  14   2    3.19    1.48
 -21   7   2    1.99    1.99
 -14  -7  -2    4.27    1.40
 -21   7  -2    1.43    2.21
 -21  14  -2    2.52    1.83
 -15  15   0    4.60    0.79
 -15  15   1    0.57    0.63
 -15  15  -1    0.73    0.75
  15 -15  -1    0.29    0.73
 -15  15   2    1.18    0.64
 -15   0   2    1.41    1.38
  15 -15   2    0.75    0.80
 -15   0  -2    2.28    1.41
 -15  15  -2    0.07    0.87
  15 -15  -2   -0.25    0.77
  15 -15  -2    0.66    0.84
   0 -15  -2    1.11    1.40
 -15   0   3    0.19    1.34
   0 -15   3   -1.00    1.15
  15 -15   3    0.52    1.16
 -15   0  -3   -0.31    1.48
 -15  15  -3   -0.08    1.01
   0  15  -3   -0.68    0.37
  15   0  -3   -0.31    1.39
   0 -15  -3   -0.33    1.23
  15 -15  -3    0.12    0.82
  15 -15  -3   -0.52    0.83
   0 -15  -3    0.03    1.43
 -15   0   4    6.75    1.52
   0 -15   4    1.72    1.30
  15 -15   4    1.53    0.99
   0  15  -4    0.91    0.60
 -15   0  -4    1.50    1.71
  15   0  -4    0.85    0.97
 -15  15  -4    1.28    1.35
   0  15  -4    2.54    1.48
 -15  15  -4    0.69    1.32
   0 -15  -4    2.20    0.87
  15 -15  -4    1.88    1.00
  15 -15  -4    2.78    0.92
   0 -15  -4    2.52    1.47
   0 -15   5   -0.67    1.28
  15 -15   5    0.16    1.01
   0  15  -5    1.45    1.17
 -15   0  -5    0.97    1.72
  15   0  -5   -1.01    1.46
   0 -15  -5    1.42    1.39
   0  15  -5    0.86    1.47
 -15  15  -5   -0.63    1.35
  15 -15  -5    1.16    1.10
  15 -15  -5   -0.37    0.92
   0 -15  -5   -0.14    1.44
   0 -15   6    3.75    1.46
  15 -15   6    1.88    1.16
   0  15  -6    0.86    1.52
  15   0  -6    1.12    1.66
 -15   0  -6    3.12    2.02
  15 -15  -6    1.16    0.97
  15 -15  -6    1.81    1.36
   0 -15  -6    1.99    1.59
   0  15  -6    2.09    1.64
 -15  15  -6    1.73    1.59
  15 -15  -6    3.37    1.46
   0 -15  -6   -0.61    1.58
   0 -15   7   -1.07    1.45
  15 -15   7    0.67    1.20
   0  15  -7    3.80    2.87
  15   0  -7   -2.31    1.63
 -15   0  -7   -0.84    2.04
  15 -15  -7   -0.66    1.08
   0 -15  -7    0.03    0.94
   0  15  -7    0.56    1.60
 -15  15  -7    0.86    1.55
  15 -15  -7    0.94    1.44
   0 -15  -7    0.04    1.55
   0 -15   8   -0.84    1.57
  15 -15   8    0.15    1.33
   0  15  -8    6.17    3.10
  15   0  -8   -0.64    1.72
  15 -15  -8    2.01    1.80
   0  15  -8    0.33    1.73
 -15  15  -8   -1.94    1.75
  15 -15  -8   -0.17    1.20
   0 -15  -8   -1.75    1.68
 -15  16   0    0.92    0.62
 -16  15   0    0.90    0.77
 -16  15   1    1.42    0.73
 -15  16   1    0.30    0.59
 -15  -1   1    0.50    1.35
 -16  15  -1    0.93    0.83
 -15  16  -1    0.07    0.90
  16 -15  -1    0.78    0.68
  16 -15  -1    0.96    0.79
 -15  16   2    1.65    0.82
 -16  15   2    2.07    0.98
 -16   1   2    1.34    1.47
 -15  -1   2    1.02    1.39
  -1 -15   2    1.30    0.74
  15 -16   2    1.28    0.88
  16 -15   2    1.33    0.79
 -15  -1  -2    2.25    1.50
 -16   1  -2    1.05    1.55
 -15  16  -2    1.89    0.78
 -16  15  -2    1.26    1.01
  -1 -15  -2    1.72    0.78
  16 -15  -2    1.09    0.98
  15 -16  -2    0.93    0.90
  16 -15  -2    1.15    1.04
  15 -16  -2    2.34    0.99
 -16  15   3   -0.06    0.70
 -16   1   3   -1.45    1.39
 -15  -1   3    0.94    1.31
   1 -16   3   -0.73    1.21
  -1 -15   3    1.08    1.14
  15 -16   3    1.18    0.89
  16 -15   3   -0.19    0.81
 -16   1  -3   -1.82    1.56
 -15  -1  -3    0.07    1.45
 -16  15  -3    0.12    1.09
 -15  16  -3    1.04    0.87
  -1  16  -3   -0.04    0.34
   1  15  -3   -0.16    0.54
  15   1  -3    0.80    0.86
   1 -16  -3    1.30    0.79
  -1 -15  -3   -0.41    1.22
  16 -15  -3   -0.08    0.73
  15 -16  -3   -0.35    0.88
  16 -15  -3   -0.05    0.76
  15 -16  -3   -0.10    0.88
   1 -16  -3   -0.48    1.51
  -1 -15  -3   -2.66    1.38
 -16   1   4    1.05    1.46
 -15  -1   4   -0.60    1.41
   1 -16   4    0.88    1.30
  -1 -15   4   -0.99    1.23
  15 -16   4    0.20    0.97
  16 -15   4    0.68    0.92
  -1  16  -4    0.36    0.61
 -16   1  -4    1.89    1.72
 -15  -1  -4    0.64    0.99
   1  15  -4    0.07    0.58
  16  -1  -4    0.58    1.51
 -16  15  -4   -0.25    1.31
  15   1  -4   -0.12    1.51
  -1  16  -4    1.63    1.48
   1  15  -4    0.21    1.42
   1 -16  -4    2.58    1.37
  -1 -15  -4    0.71    1.35
  16 -15  -4    1.49    0.85
  15 -16  -4   -0.04    1.03
  16 -15  -4   -0.18    0.82
  15 -16  -4    0.15    0.96
   1 -16  -4   -0.59    1.50
  -1 -15  -4    2.63    1.39
 -16   1   5    1.81    0.90
   1 -16   5    1.00    1.40
  -1 -15   5    0.95    1.32
  15 -16   5    0.06    1.10
  16 -15   5    1.04    1.03
  -1  16  -5    0.95    1.02
   1  15  -5    1.22    1.16
 -16   1  -5    2.00    1.15
 -15  -1  -5   -2.09    1.81
  16  -1  -5    1.98    1.59
  15   1  -5   -1.09    1.60
  -1  16  -5    2.06    1.57
 -16  15  -5   -0.77    1.41
 -15  16  -5    1.15    1.46
   1  15  -5   -0.12    1.53
   1 -16  -5    2.03    1.50
  16 -15  -5    0.29    1.02
  15 -16  -5   -0.03    1.24
  -1 -15  -5    2.89    1.45
  16 -15  -5   -0.11    0.94
  15 -16  -5    0.77    1.03
   1 -16  -5    1.87    1.62
  -1 -15  -5   -0.34    1.46
   1 -16   6    0.00    1.46
  -1 -15   6   -0.54    1.38
  15 -16   6   -0.50    1.17
  16 -15   6   -0.78    1.15
  -1  16  -6    1.19    1.24
   1  15  -6   -0.42    1.36
  16  -1  -6    0.88    1.61
 -15  -1  -6    1.52    1.99
  15   1  -6    1.69    1.69
 -16   1  -6    1.82    2.02
  -1  16  -6    0.81    1.65
   1 -16  -6   -0.12    1.59
  16 -15  -6    2.30    1.24
  15 -16  -6    1.65    1.38
  -1 -15  -6    1.97    1.60
   1  15  -6    0.65    1.61
 -16  15  -6   -0.73    1.52
 -15  16  -6    2.78    1.55
  16 -15  -6   -0.11    1.00
  15 -16  -6    1.79    1.10
   1 -16  -6   -3.82    1.64
  -1 -15  -6    3.47    1.54
   1 -16   7    1.92    1.55
  -1 -15   7    2.06    1.49
  15 -16   7   -0.35    1.25
  16 -15   7    0.38    1.23
  -1  16  -7   -3.30    2.80
   1  15  -7    1.44    2.78
  15   1  -7   -0.23    1.76
  16  -1  -7    1.23    1.69
  16 -15  -7   -0.06    1.26
 -15  -1  -7    0.50    1.34
  15 -16  -7    0.06    0.94
   1 -16  -7    1.66    1.64
  16 -15  -7   -0.72    1.44
  15 -16  -7   -0.50    1.53
  -1 -15  -7    0.44    1.66
  -1  16  -7    1.23    1.07
 -16  15  -7   -1.31    1.64
 -15  16  -7    1.78    1.71
   1  15  -7   -2.61    1.72
  16 -15  -7    1.45    1.07
  15 -16  -7   -0.51    1.18
  -1 -15  -7   -0.28    1.56
   1 -16  -7   -0.40    1.67
   1 -16   8   -0.40    1.66
  -1 -15   8   -1.37    0.98
  15 -16   8    1.44    1.37
  16 -15   8   -2.15    1.38
  -1  16  -8   -3.57    3.08
   1  15  -8   -1.46    3.05
  16  -1  -8    0.49    1.79
  15   1  -8   -0.56    1.87
  16 -15  -8   -0.13    1.49
  15 -16  -8    0.51    1.14
  -1  16  -8   -0.01    1.80
 -16  15  -8    1.48    1.80
 -15  16  -8    0.46    1.81
   1  15  -8   -0.85    1.79
  16 -15  -8   -0.69    1.19
  15 -16  -8   -0.03    1.26
  -1 -15  -8   -1.67    1.69
   1 -16  -8    0.87    1.76
 -15  17   0    3.68    0.68
 -17  15   0    6.75    1.09
 -17  15   1   12.26    1.19
 -15  -2   1   16.57    1.97
  17 -15   1   10.33    1.06
 -17  15  -1   11.19    1.81
 -17  15   2    3.77    0.89
 -15  -2   2    0.11    1.51
 -17   2   2    0.35    1.65
  15 -17   2    2.01    1.02
  17 -15   2    0.83    0.84
 -15  -2  -2    2.07    0.95
 -17   2  -2    2.12    1.83
 -17  15  -2    3.51    1.17
 -15  17  -2    1.98    0.96
  17 -15  -2    2.36    0.71
  17 -15  -2    2.41    0.80
 -17  15   3    4.96    0.99
 -15  -2   3    6.90    1.70
 -17   2   3    8.04    1.12
  -2 -15   3    5.10    1.40
   2 -17   3    6.15    1.62
  15 -17   3    4.96    1.21
  17 -15   3    5.11    0.99
 -17   2  -3    9.78    2.02
 -15  -2  -3    6.80    1.84
 -17  15  -3    6.99    1.59
 -15  17  -3    3.69    1.01
  -2 -15  -3    5.82    1.58
   2 -17  -3    8.12    1.72
  15 -17  -3    4.82    1.29
  17 -15  -3    4.36    1.24
  15 -17  -3    4.82    1.24
  -2 -15  -3    7.39    1.72
   2 -17  -3    9.34    2.02
 -15  -2   4    3.00    1.52
 -17   2   4    2.43    1.05
  -2 -15   4    3.05    1.31
   2 -17   4    1.77    1.49
  15 -17   4    1.93    1.14
  17 -15   4    1.14    1.02
 -17   2  -4    2.92    1.21
 -15  -2  -4    1.37    1.80
   2  15  -4    2.07    0.87
 -17  15  -4    2.23    1.55
  15   2  -4    1.82    1.77
  17  -2  -4    3.37    1.69
  -2 -15  -4    3.66    1.51
  17 -15  -4    2.89    0.83
  15 -17  -4    2.52    1.24
   2 -17  -4    2.62    1.61
  17 -15  -4    1.05    0.89
  15 -17  -4    2.87    1.16
  -2 -15  -4    2.79    1.50
   2 -17  -4    0.49    1.78
 -17   2   5   11.55    1.30
  -2 -15   5   11.73    1.76
   2 -17   5   10.57    1.95
  15 -17   5    7.47    1.55
  17 -15   5    6.33    1.45
 -15  -2  -5   14.40    2.43
 -17   2  -5   11.81    2.59
  17  -2  -5   12.98    2.15
  15   2  -5   12.48    2.26
 -15  17  -5    6.10    1.76
   2  15  -5   14.17    2.05
 -17  15  -5    8.76    1.87
 -15  17  -5    9.12    2.06
  -2  17  -5   10.73    2.17
  -2 -15  -5   10.13    2.00
  17 -15  -5    7.81    1.25
  15 -17  -5    8.31    1.87
   2 -17  -5   13.34    2.05
  17 -15  -5    6.55    1.26
  15 -17  -5    7.26    1.49
  -2 -15  -5   10.13    1.95
   2 -17  -5   10.74    2.17
  -2 -15   6    0.97    1.39
   2 -17   6    0.55    1.61
  15 -17   6    1.14    1.26
  17 -15   6   -0.08    1.23
   2  15  -6    1.36    1.36
 -17   2  -6    0.36    2.15
 -15  -2  -6    4.10    2.11
  15   2  -6    4.77    1.80
  17  -2  -6    1.86    1.74
  -2 -15  -6    0.48    1.67
   2  15  -6    1.24    1.71
 -17  15  -6    3.27    1.59
  17 -15  -6   -0.11    1.15
 -15  17  -6   -0.91    1.75
  15 -17  -6   -0.63    1.55
  -2  17  -6    2.23    1.79
   2 -17  -6    2.28    1.73
  17 -15  -6    0.70    1.04
  15 -17  -6    2.51    1.20
  -2 -15  -6    0.49    1.52
   2 -17  -6    0.80    1.81
  -2 -15   7    3.59    1.72
   2 -17   7    7.25    1.91
  15 -17   7    4.41    1.55
  17 -15   7    1.81    1.59
  -2  17  -7    3.91    2.78
   2  15  -7    3.47    2.43
  17  -2  -7    6.37    1.30
  15   2  -7    7.01    2.15
 -17   2  -7    6.85    2.66
  17 -15  -7    4.32    1.68
  -2 -15  -7    9.11    2.07
  17 -15  -7    3.26    1.67
  15 -17  -7    5.87    1.93
   2 -17  -7    6.01    2.04
   2  15  -7    7.57    2.11
 -17  15  -7    6.00    2.68
 -15  17  -7    3.36    2.13
  -2  17  -7    6.04    2.10
  17 -15  -7    3.74    1.29
  15 -17  -7    3.72    1.49
  -2 -15  -7    3.46    1.17
   2 -17  -7    5.23    2.10
 -15  18   0    0.80    0.48
 -18  15   0   -0.34    0.95
 -15  18   1    0.18    0.61
 -18  15   1    0.91    0.90
 -15  -3   1    0.90    1.37
  18 -15   1    1.10    0.68
  18 -15   1    0.69    0.67
 -15  -3  -1   -0.08    1.37
 -15  18  -1    0.53    0.50
 -18  15  -1    0.26    1.06
 -18  15   2   -0.34    0.85
 -15  -3   2   -0.29    1.30
 -18   3   2   -0.53    1.54
  18 -15   2    0.42    0.95
 -15  -3  -2    2.30    1.36
 -15  18  -2   -0.30    0.56
 -18  15  -2    0.40    1.14
   3 -18  -2   -0.14    1.39
  18 -15  -2   -0.05    0.54
  18 -15  -2   -0.15    0.66
 -18  15   3    1.64    1.18
 -15  -3   3    0.42    0.84
 -18   3   3    2.61    0.97
   3 -18   3   -1.07    1.44
  -3 -15   3   -1.09    1.16
  15 -18   3    1.25    1.04
  18 -15   3    0.82    0.83
 -15  -3  -3    0.90    1.54
 -18   3  -3    1.68    1.79
 -18  15  -3    0.70    1.36
 -15  18  -3    0.02    0.71
   3 -18  -3    1.55    1.50
  -3 -15  -3    2.39    1.28
  15 -18  -3    0.21    1.13
  18 -15  -3    1.28    0.80
  18 -15  -3   -0.01    0.72
  15 -18  -3   -0.95    1.10
   3 -18  -3   -1.58    1.75
  -3 -15  -3   -0.04    1.40
 -15  -3   4    0.59    1.33
 -18   3   4    0.39    0.96
   3 -18   4   -1.20    1.44
  -3 -15   4   -0.53    1.21
  15 -18   4    0.67    1.09
  18 -15   4   -0.55    0.93
 -15  -3  -4   -2.31    1.61
 -18   3  -4   -2.75    1.84
 -18  15  -4   -2.16    1.50
   3  15  -4    0.99    0.85
  15   3  -4    1.25    1.61
   3 -18  -4    1.34    1.50
  -3 -15  -4    0.73    0.82
  15 -18  -4   -0.33    1.22
  18 -15  -4    0.14    0.87
  18 -15  -4   -0.29    1.06
  15 -18  -4   -0.05    1.11
  -3 -15  -4   -0.24    1.33
   3 -18  -4    1.16    1.70
 -18   3   5    1.90    1.64
   3 -18   5   -1.56    1.58
  -3 -15   5    1.54    1.30
  15 -18   5    0.59    1.17
  18 -15   5    0.93    1.08
 -18   3  -5    0.01    2.04
 -15  -3  -5    2.14    1.82
   3  15  -5    0.50    0.88
  15   3  -5    1.90    1.09
 -15  18  -5    1.42    1.14
  18  -3  -5    4.34    1.65
  -3  18  -5    0.96    1.73
   3  15  -5   -0.94    1.57
 -15  18  -5    0.64    1.61
   3 -18  -5    1.19    1.63
  -3 -15  -5   -0.03    1.50
  15 -18  -5    1.10    1.44
  18 -15  -5   -0.20    0.78
  18 -15  -5   -1.00    1.20
  15 -18  -5   -1.01    1.18
  -3 -15  -5    1.32    1.43
   3 -18  -5    1.45    1.73
   3 -18   6   -0.92    1.58
  -3 -15   6    1.80    1.36
  15 -18   6    0.80    1.29
  18 -15   6   -0.24    1.24
 -15  -3  -6   -0.76    2.05
   3  15  -6    0.14    1.29
 -18   3  -6    1.05    2.15
  15   3  -6    1.50    1.84
  18  -3  -6    1.87    1.07
  -3  18  -6    0.79    1.80
 -18  15  -6   -0.29    1.44
   3  15  -6    0.58    1.68
 -15  18  -6   -0.90    1.73
   3 -18  -6    0.50    1.70
  18 -15  -6   -0.39    1.26
  -3 -15  -6   -1.73    1.66
  15 -18  -6    0.37    1.56
  18 -15  -6   -1.16    1.30
  15 -18  -6    0.78    1.21
  -3 -15  -6    0.16    1.44
   3 -18  -6    1.91    1.82
 -15  -4   0    1.43    1.37
 -19  15   0    0.69    1.08
 -15  -4   1    0.75    1.35
 -19  15   1    1.40    1.01
   4 -19   1   -0.25    0.89
  19 -15   1    0.55    0.67
  19 -15   1    0.03    0.62
 -15  -4  -1    1.16    1.36
 -19  15  -1    0.98    1.17
  19 -15  -1    0.66    0.72
 -19  15   2   -0.67    0.98
 -15  -4   2    1.43    1.35
 -19   4   2    2.06    1.69
   4 -19   2    2.62    0.92
  19 -15   2    0.66    1.02
 -15  -4  -2    0.80    1.40
 -19   4  -2   -0.11    1.81
 -19  15  -2    0.96    1.34
  19 -15  -2    0.25    0.52
  19 -15  -2   -0.61    0.67
 -19  15   3   -1.21    0.98
 -15  -4   3    1.58    1.37
 -19   4   3    1.30    1.65
   4 -19   3    0.31    1.54
  -4 -15   3    1.25    1.15
  15 -19   3    0.53    1.13
  19 -15   3    0.30    0.87
 -15  -4  -3    1.98    1.52
 -19   4  -3   -1.07    1.92
 -19  15  -3    3.43    1.53
  -4 -15  -3    0.06    1.29
   4 -19  -3    1.70    1.57
  15 -19  -3   -0.26    1.27
  19 -15  -3    0.30    0.71
  19 -15  -3    0.24    1.02
  -4 -15  -3    1.84    1.31
  15 -19  -3    1.43    1.23
   4 -19  -3   -1.41    1.85
 -19   4   4    0.82    1.03
   4 -19   4   -1.33    1.53
  -4 -15   4   -0.15    1.23
  15 -19   4    0.81    1.18
  19 -15   4    0.73    1.01
 -15  -4  -4   -1.01    1.64
 -19   4  -4    2.23    2.02
 -19  15  -4    1.35    1.66
   4  15  -4    0.56    0.67
  15   4  -4    0.70    1.07
  -4 -15  -4    0.24    1.38
   4 -19  -4   -1.41    1.61
  15 -19  -4   -0.99    1.38
  19 -15  -4    0.61    0.57
  19 -15  -4    0.32    1.08
  -4 -15  -4   -1.40    1.34
  15 -19  -4    0.65    1.26
   4 -19  -4   -0.37    1.80
 -19   4   5    1.73    1.74
   4 -19   5    3.29    1.65
  -4 -15   5    0.07    1.27
  15 -19   5    0.96    1.26
  19 -15   5    0.47    1.18
 -15  -4  -5   -0.37    1.85
 -19   4  -5    0.70    2.16
   4  15  -5   -0.44    0.93
  15   4  -5    0.95    1.91
 -15  19  -5   -0.46    0.99
  19  -4  -5    0.99    1.75
   4 -19  -5    1.18    1.76
  -4 -15  -5    0.98    1.54
  15 -19  -5    0.39    1.53
  19 -15  -5    1.38    0.67
  19 -15  -5    0.36    1.22
  -4 -15  -5    0.32    1.38
  15 -19  -5    0.11    1.30
   4 -19  -5    2.20    1.87
 -15  -5   0    4.38    1.53
 -20  15   0    2.25    1.37
 -15  -5   1    1.72    1.51
 -20  15   1    3.91    1.28
 -15  -5  -1    4.49    1.54
 -20  15  -1    1.52    1.50
 -15  -5   2    0.64    1.49
 -20  15   2    1.91    1.23
 -20   5   2    3.64    1.96
   5 -20   2    2.20    1.10
 -15  -5  -2    3.51    1.58
 -20   5  -2    4.79    1.32
 -20  15  -2    0.78    1.67
   5 -20  -2    3.46    2.07
 -15  -5   3   -0.61    1.44
 -20  15   3    0.13    1.17
 -20   5   3    3.06    1.89
   5 -20   3    1.31    1.06
  15 -20   3    1.94    1.29
  -5 -15   3    0.90    1.21
 -15  -5  -3    0.24    1.59
 -20   5  -3    2.46    2.12
 -20  15  -3    1.85    1.72
   5 -20  -3    3.05    1.75
  15 -20  -3    1.68    1.46
  -5 -15  -3    2.50    1.33
  15 -20  -3    1.93    1.44
  -5 -15  -3    1.00    1.36
   5 -20  -3    3.88    2.04
 -20  15   4    0.22    1.11
 -20   5   4    2.98    1.17
   5 -20   4    1.53    1.76
  15 -20   4    2.15    1.36
  -5 -15   4    0.84    1.26
 -15  -5  -4    1.95    1.73
 -20   5  -4    1.96    2.23
 -20  15  -4    0.23    1.90
   5 -20  -4    0.79    1.83
  15 -20  -4    0.79    1.58
  -5 -15  -4    2.24    1.47
  15 -20  -4    1.07    1.48
  -5 -15  -4    1.07    1.40
   5 -20  -4   -0.80    2.04
 -15  -6   0   -0.74    1.33
 -21  15   0    0.31    1.32
 -15  -6   1   -1.26    1.31
 -21  15   1    1.05    1.25
 -15  -6  -1    2.44    1.38
 -21   6  -1   -0.31    1.18
 -21  15  -1   -1.04    1.45
 -21  15   2   -0.11    1.20
 -16  16   0   26.72    1.55
 -16  16   1    6.92    1.20
   0 -16  -1    4.31    0.90
 -16   0   2   21.47    2.31
   0 -16   2   23.15    1.34
  16 -16   2   14.88    1.87
 -16   0  -2   26.58    2.49
   0 -16  -2   22.72    2.14
  16 -16  -2   16.66    1.49
 -16   0   3    0.73    1.52
   0 -16   3    0.97    0.79
  16 -16   3    0.15    0.93
 -16   0  -3   -1.80    1.71
 -16  16  -3    1.15    1.07
   0 -16  -3    3.62    1.48
  16 -16  -3   -0.73    1.23
  16 -16  -3    1.04    0.93
   0 -16  -3    2.54    1.66
 -16   0   4   14.69    2.24
   0 -16   4   16.07    1.26
  16 -16   4   11.14    1.46
 -16   0  -4   20.58    2.57
 -16  16  -4   12.41    1.97
  16   0  -4   18.79    2.29
   0 -16  -4   17.64    2.18
  16 -16  -4   11.04    1.93
  16 -16  -4   11.85    1.83
   0 -16  -4   17.90    2.24
   0 -16   5    2.15    0.91
  16 -16   5    1.54    1.10
   0  16  -5    0.36    1.01
 -16   0  -5    1.76    1.99
  16   0  -5    1.78    1.72
 -16  16  -5    4.26    1.51
   0  16  -5    2.10    1.69
   0 -16  -5    1.99    1.61
  16 -16  -5   -0.91    1.17
  16 -16  -5    0.94    1.03
   0 -16  -5    0.45    1.68
   0 -16   6    9.24    1.91
  16 -16   6    5.59    1.50
   0  16  -6    4.92    2.02
 -16   0  -6   12.88    2.73
  16   0  -6   12.24    2.21
   0 -16  -6   12.34    2.16
   0  16  -6   13.17    2.17
 -16  16  -6    9.07    2.18
  16 -16  -6    5.77    1.85
  16 -16  -6    6.67    1.45
   0 -16  -6   10.90    2.13
   0 -16   7    2.77    1.71
  16 -16   7    1.84    1.38
   0  16  -7    0.60    2.67
  16   0  -7    2.16    1.96
  16 -16  -7    1.19    1.14
   0 -16  -7    4.75    1.87
  16 -16  -7    1.98    1.69
   0  16  -7    2.81    1.93
 -16  16  -7    2.11    2.53
  16 -16  -7    1.93    1.28
   0 -16  -7    2.37    1.83
 -17  16   0   -0.14    0.76
 -16  -1   0    1.72    1.42
 -16  17   0    0.01    0.61
   1 -17   0    1.56    0.78
 -16  17   1    0.77    0.60
 -17  16   1    0.20    1.01
 -16  -1   1    0.75    1.44
   1 -17   1    0.64    0.80
  16 -17   1    0.66    0.87
 -16  17  -1    1.10    0.67
 -17  16  -1    0.72    0.85
 -16  17   2   -0.22    0.56
 -17  16   2   -0.34    0.70
 -16  -1   2   -2.30    1.39
 -17   1   2   -0.05    1.46
   1 -17   2    1.09    0.78
  16 -17   2    0.69    0.87
  17 -16   2    0.21    0.77
 -17   1  -2    1.27    1.57
 -16  -1  -2   -0.95    1.48
 -17  16  -2   -0.81    0.92
 -16  17  -2   -0.03    0.74
   1 -17  -2    1.05    1.32
  -1 -16  -2   -0.34    1.26
  17 -16  -2    0.25    0.68
  17 -16  -2   -0.41    0.76
  -1 -16  -2   -0.65    0.88
 -17  16   3    0.34    0.71
 -16  -1   3    2.02    1.48
 -17   1   3    0.30    1.50
   1 -17   3   -2.12    1.31
  -1 -16   3    0.39    1.22
  16 -17   3    0.93    0.92
  17 -16   3   -0.16    0.84
 -17   1  -3    0.49    1.01
 -16  -1  -3    0.67    1.58
 -17  16  -3   -1.10    1.54
   1 -17  -3   -0.55    1.41
  16 -17  -3    0.61    0.94
  -1 -16  -3    1.41    1.34
  17 -16  -3   -0.43    0.81
  16 -17  -3    0.06    0.94
   1 -17  -3   -0.08    1.64
  -1 -16  -3    0.32    0.93
 -17   1   4   -0.40    1.60
 -16  -1   4    0.51    1.47
   1 -17   4   -0.23    1.39
  -1 -16   4    0.90    1.29
  16 -17   4    0.53    1.38
  17 -16   4    1.15    1.28
 -17   1  -4   -0.48    1.81
 -16  -1  -4    0.24    1.79
 -16  17  -4    1.90    1.14
  17  -1  -4   -0.60    1.61
  16   1  -4   -0.28    1.65
   1 -17  -4    0.60    1.51
  17 -16  -4    0.97    0.86
  16 -17  -4    1.23    1.07
  -1 -16  -4    1.84    1.44
  17 -16  -4    0.56    0.85
  16 -17  -4   -0.42    0.98
   1 -17  -4    0.62    1.61
  -1 -16  -4    0.87    0.94
   1 -17   5   -0.18    1.40
  -1 -16   5    0.50    1.34
  16 -17   5    0.80    1.47
  17 -16   5   -0.04    1.36
 -17   1  -5   -0.49    1.95
 -16  -1  -5    0.54    1.89
   1  16  -5   -0.39    0.96
  17  -1  -5    1.45    1.68
  16   1  -5    1.01    1.71
 -16  17  -5    3.27    1.48
  -1  17  -5   -1.86    1.61
 -16  17  -5   -2.54    1.56
   1  16  -5    0.83    1.57
   1 -17  -5    2.28    1.57
  16 -17  -5    0.00    1.22
  -1 -16  -5    2.62    1.53
  17 -16  -5   -1.15    0.98
  17 -16  -5    0.35    0.93
  16 -17  -5   -0.44    1.02
   1 -17  -5    0.48    1.62
  -1 -16  -5   -1.04    1.53
   1 -17   6   -0.51    1.49
  -1 -16   6   -0.06    1.44
  16 -17   6   -0.62    1.59
  17 -16   6   -0.45    1.58
   1  16  -6   -0.21    1.11
 -17   1  -6    0.05    1.29
 -16  -1  -6    0.03    2.07
  16   1  -6    0.97    1.78
  17  -1  -6   -0.02    1.75
  -1  17  -6    0.71    1.76
   1 -17  -6    0.00    1.68
 -17  16  -6    0.68    1.62
 -16  17  -6    2.01    1.68
  -1 -16  -6    0.19    1.67
   1  16  -6    0.29    1.70
  17 -16  -6    0.35    1.20
  16 -17  -6   -0.57    1.48
  17 -16  -6    1.30    1.03
  16 -17  -6    0.88    1.11
   1 -17  -6    2.26    1.69
  -1 -16  -6   -0.92    1.57
   1 -17   7   -0.18    1.56
  -1 -16   7    0.39    0.94
  16 -17   7   -0.20    1.27
  17 -16   7    1.54    1.26
   1  16  -7    0.80    1.71
  17  -1  -7    0.91    1.80
  16   1  -7   -2.44    1.14
  -1  17  -7    0.25    1.82
   1 -17  -7   -2.92    1.77
  17 -16  -7   -0.08    1.51
  16 -17  -7    0.36    1.63
  -1 -16  -7   -1.17    1.82
   1  16  -7    1.19    1.82
 -17  16  -7    0.51    1.76
 -16  17  -7    0.62    1.80
  17 -16  -7   -1.02    1.11
  16 -17  -7    0.25    1.18
  -1 -16  -7   -0.91    1.69
   1 -17  -7   -1.43    1.77
 -16  18   0    0.24    0.73
 -18  16   0   -0.61    0.85
 -16  18   1    0.55    0.53
 -18  16   1   -0.24    1.09
 -16  -2   1    0.70    0.87
 -18  16  -1   -0.70    0.93
 -16  -2  -1    0.74    1.43
 -16  18  -1    0.48    0.57
  18 -16  -1   -0.76    0.71
 -18  16   2    0.99    0.78
 -16  -2   2    0.49    1.40
 -18   2   2    0.96    1.55
   2 -18   2    1.19    0.85
  16 -18   2    0.86    0.93
  18 -16   2   -0.58    0.76
 -18   2  -2   -0.56    1.70
 -16  -2  -2   -1.59    1.54
 -16  18  -2   -0.29    0.87
 -18  16  -2    0.69    1.06
  18 -16  -2   -0.19    0.64
  18 -16  -2   -0.56    0.99
 -18  16   3    0.52    0.77
 -16  -2   3    0.28    1.45
 -18   2   3    0.03    1.57
  -2 -16   3    0.00    1.21
   2 -18   3   -0.64    1.35
  16 -18   3    1.48    0.98
  18 -16   3   -0.13    0.84
 -16  -2  -3   -0.11    1.58
 -18   2  -3   -1.04    1.77
 -18  16  -3    1.03    1.25
  -2 -16  -3    0.26    1.35
  16 -18  -3    0.07    1.02
   2 -18  -3    1.55    1.49
  18 -16  -3   -0.93    0.90
  18 -16  -3    0.52    0.76
  16 -18  -3   -0.91    1.02
  -2 -16  -3   -0.05    1.50
   2 -18  -3    0.71    1.74
 -16  -2   4   -2.91    1.44
 -18   2   4    0.72    1.57
  -2 -16   4   -0.76    1.24
   2 -18   4   -1.47    1.39
  16 -18   4   -0.11    1.04
  18 -16   4   -0.32    0.92
 -16  -2  -4   -0.16    1.71
 -18   2  -4    1.24    1.85
 -16  18  -4   -0.53    0.94
  16   2  -4    0.66    0.99
  -2 -16  -4    1.09    1.41
   2 -18  -4    0.77    0.93
  18 -16  -4   -0.79    0.98
  16 -18  -4    1.65    1.14
  18 -16  -4    0.84    0.81
  16 -18  -4   -0.52    1.05
  -2 -16  -4   -1.63    1.44
   2 -18  -4    0.43    1.65
 -18   2   5    1.80    1.04
  -2 -16   5    0.49    1.38
   2 -18   5    2.13    1.57
  16 -18   5    0.94    1.17
  18 -16   5    0.69    1.10
 -18   2  -5    1.14    2.11
 -16  -2  -5    0.45    1.99
 -18  16  -5    1.92    1.73
  16   2  -5    1.83    1.83
 -16  18  -5   -0.81    1.27
  18  -2  -5    0.66    1.67
  -2  18  -5    0.26    1.08
  -2 -16  -5   -0.11    1.61
   2 -18  -5   -0.89    1.70
  18 -16  -5    0.75    1.19
  16 -18  -5    1.58    1.38
  18 -16  -5    1.02    0.93
  16 -18  -5    0.91    1.13
  -2 -16  -5   -0.05    1.57
   2 -18  -5   -0.20    1.79
  -2 -16   6   -0.12    1.40
   2 -18   6   -0.79    1.58
  16 -18   6    0.24    1.20
  18 -16   6   -0.29    1.16
 -16  -2  -6   -0.50    2.15
 -18   2  -6   -0.93    2.20
  18  -2  -6   -0.82    1.09
  16   2  -6   -0.14    1.85
 -16  18  -6    1.31    1.57
 -18  16  -6    0.67    1.58
   2  16  -6    0.71    1.74
 -16  18  -6   -0.58    1.75
  -2  18  -6    2.05    1.80
  -2 -16  -6   -1.61    1.68
  18 -16  -6   -1.66    1.05
  16 -18  -6    2.60    1.51
   2 -18  -6    1.18    1.72
  18 -16  -6   -0.01    0.97
  16 -18  -6    0.66    1.17
  -2 -16  -6    2.25    1.56
   2 -18  -6   -0.88    1.82
 -19  16   0   11.72    1.43
 -19  16   1    3.91    1.37
 -16  19  -1    0.53    0.71
 -19  16  -1    0.21    1.16
  19 -16  -1    1.30    0.67
  19 -16  -1    1.67    0.76
 -19  16   2    4.93    1.10
 -16  -3   2    6.13    1.72
 -19   3   2    7.79    2.03
  19 -16   2    4.82    0.96
 -16  -3  -2    7.16    1.83
 -19   3  -2    7.37    1.38
 -19  16  -2    3.66    1.51
  19 -16  -2    2.75    0.95
  19 -16  -2    2.83    1.16
   3 -19  -2   11.77    2.16
 -19  16   3    0.49    0.91
 -16  -3   3   -1.61    1.47
 -19   3   3   -1.06    1.75
   3 -19   3    2.11    0.92
  16 -19   3    0.76    1.07
  -3 -16   3   -0.42    1.26
  19 -16   3   -0.98    0.89
 -16  -3  -3   -2.11    1.72
 -19   3  -3   -1.19    1.95
 -19  16  -3   -0.21    1.45
   3 -19  -3    0.59    1.00
  -3 -16  -3   -3.30    1.40
  16 -19  -3   -0.81    1.17
  19 -16  -3   -0.13    0.83
  19 -16  -3   -1.10    1.02
  16 -19  -3   -0.52    1.16
  -3 -16  -3   -1.32    1.46
   3 -19  -3    1.11    1.90
 -16  -3   4    1.98    1.07
 -19   3   4    5.87    2.01
   3 -19   4    4.26    1.74
  16 -19   4    3.94    1.31
  -3 -16   4    4.09    1.48
  19 -16   4    1.79    1.15
 -19   3  -4    6.08    2.35
 -16  -3  -4    6.12    2.05
 -19  16  -4    4.17    1.92
   3 -19  -4    3.70    1.90
  16 -19  -4    3.87    1.50
  -3 -16  -4    6.16    1.69
  19 -16  -4    2.55    0.78
  19 -16  -4    2.90    0.99
  16 -19  -4    5.79    1.37
  -3 -16  -4    4.28    1.71
   3 -19  -4    6.95    2.12
 -19   3   5    0.51    1.09
   3 -19   5   -0.26    1.69
  16 -19   5    1.16    1.23
  -3 -16   5    0.99    1.39
  19 -16   5    0.53    1.14
 -16  -3  -5   -0.50    2.05
 -19   3  -5    0.22    1.41
  19  -3  -5    0.55    1.12
  16   3  -5    0.44    1.94
   3 -19  -5    2.81    1.80
  16 -19  -5    0.38    1.54
  -3 -16  -5    1.49    1.63
  19 -16  -5    0.98    0.77
  19 -16  -5    0.37    0.94
  16 -19  -5   -0.25    1.25
   3 -19  -5    4.39    1.93
  -3 -16  -5    1.83    1.54
 -16  -4   0    1.38    1.46
 -20  16   0   -0.68    1.10
 -16  -4   1    0.24    1.52
 -20  16   1    1.61    1.50
 -16  -4  -1    2.69    1.57
 -20   4  -1    2.23    1.21
 -20  16  -1    2.15    1.29
 -16  -4   2   -0.03    1.45
 -20  16   2   -0.41    1.00
 -16  -4  -2    0.67    1.55
 -20   4  -2    1.92    1.95
 -20  16  -2    0.35    1.37
 -20  16   3    0.49    0.98
 -16  -4   3   -0.54    1.44
 -20   4   3   -0.90    1.80
   4 -20   3    1.11    0.98
  -4 -16   3    1.64    1.22
  16 -20   3    0.39    1.15
 -16  -4  -3    0.07    1.62
 -20   4  -3    0.25    2.03
 -20  16  -3   -1.12    1.58
   4 -20  -3   -1.11    1.70
  -4 -16  -3    0.99    1.36
  16 -20  -3   -0.17    1.27
  -4 -16  -3   -0.18    1.39
  16 -20  -3   -0.59    1.27
   4 -20  -3   -1.93    2.00
 -17  17   0    0.38    0.69
 -17  17   1    0.15    0.66
 -17  17  -1   -1.12    0.76
 -17  17   2    0.22    0.88
 -17   0   2   -0.29    1.53
  17 -17   2    1.50    0.84
 -17   0  -2   -0.19    1.63
 -17  17  -2   -0.15    0.84
  17 -17  -2    0.77    0.79
  17 -17  -2    0.07    1.16
   0 -17  -2    0.72    0.97
 -17   0   3   -0.88    1.52
   0 -17   3   -0.26    1.32
  17 -17   3    0.26    0.89
 -17   0  -3    0.33    1.69
 -17  17  -3   -0.14    0.99
   0 -17  -3    0.04    1.41
  17 -17  -3    0.25    0.86
  17 -17  -3    0.56    0.88
   0 -17  -3    2.17    1.61
 -17   0   4    2.54    1.58
   0 -17   4    2.04    1.41
  17 -17   4    0.13    1.01
 -17   0  -4    0.46    1.90
 -17  17  -4   -0.54    1.28
   0 -17  -4    0.79    0.95
  17 -17  -4    0.25    0.99
  17 -17  -4    1.40    0.95
   0 -17  -4    0.13    1.62
   0 -17   5    0.41    0.88
  17 -17   5   -0.99    1.06
 -17   0  -5   -1.48    1.24
  17   0  -5   -0.68    1.73
   0  17  -5   -0.12    1.02
   0 -17  -5   -0.89    1.59
  17 -17  -5   -0.07    1.11
  17 -17  -5    0.70    0.98
   0 -17  -5    1.36    1.62
   0 -17   6    1.41    1.55
  17 -17   6    0.85    1.24
 -17   0  -6    0.02    2.25
  17   0  -6   -0.60    1.89
   0  17  -6    1.94    1.84
 -17  17  -6   -0.41    1.82
   0 -17  -6   -0.09    1.81
  17 -17  -6    1.66    1.89
  17 -17  -6    2.64    1.14
   0 -17  -6    1.62    1.77
 -17  18   0    1.21    0.68
 -18  17   0    1.79    0.85
 -17  18   1    3.45    0.75
 -18  17   1    4.73    0.94
  18 -17   1    5.45    0.94
 -18   1  -1    8.70    1.23
 -18  17  -1    3.44    1.02
 -17  -1  -1    8.00    1.87
 -17  18  -1    3.07    0.83
  18 -17  -1    4.21    0.88
 -17  18   2    0.10    0.63
 -18  17   2    1.34    0.80
 -18   1   2    0.13    1.68
 -17  -1   2   -0.67    1.60
  17 -18   2    0.97    0.92
  18 -17   2   -0.74    1.17
 -18   1  -2    5.87    1.83
 -18  17  -2    0.26    1.00
 -17  -1  -2    1.39    1.77
 -17  18  -2    0.96    1.03
  18 -17  -2    1.00    0.78
  18 -17  -2    1.64    0.86
 -17  -1   3    1.83    1.72
 -18   1   3    1.36    1.79
   1 -18   3    2.69    1.53
  -1 -17   3    1.22    1.42
  17 -18   3    4.14    1.06
  18 -17   3    2.55    0.95
 -17  -1  -3    2.06    1.90
 -18   1  -3    4.75    2.00
 -18  17  -3    4.18    1.24
 -17  18  -3    2.10    0.97
   1 -18  -3    1.14    1.04
  -1 -17  -3    1.59    1.62
  18 -17  -3    1.16    0.87
  17 -18  -3    2.08    1.06
  18 -17  -3    0.38    0.95
  17 -18  -3    0.66    1.09
   1 -18  -3    5.32    1.92
  -1 -17  -3    5.36    1.80
 -17  -1   4   -2.12    1.62
 -18   1   4    0.35    1.68
   1 -18   4    0.22    0.92
  -1 -17   4    3.68    1.37
  17 -18   4   -1.24    1.04
  18 -17   4    1.35    0.99
 -18   1  -4   -0.03    2.03
 -17  -1  -4    2.15    1.17
 -18  17  -4   -1.54    1.41
 -17  18  -4    0.39    1.12
   1 -18  -4    0.33    1.62
  -1 -17  -4    0.30    1.57
  18 -17  -4   -0.20    0.88
  17 -18  -4   -0.37    1.10
  18 -17  -4   -0.01    0.91
  17 -18  -4    1.40    1.03
   1 -18  -4    0.91    1.73
  -1 -17  -4    0.47    1.60
   1 -18   5    5.61    1.86
  -1 -17   5    6.76    1.77
  17 -18   5    5.53    1.36
  18 -17   5    4.08    1.32
 -18   1  -5    8.92    2.61
 -17  -1  -5    8.48    2.49
  18  -1  -5    5.94    2.13
  17   1  -5    8.11    2.14
   1 -18  -5    9.91    2.05
  18 -17  -5    3.63    1.26
  17 -18  -5    5.01    1.55
  -1 -17  -5    6.87    2.02
  18 -17  -5    4.26    1.22
  17 -18  -5    4.36    1.32
   1 -18  -5    5.06    2.16
  -1 -17  -5    5.73    1.28
 -17  19   0    0.68    0.61
 -19  17   0    1.42    0.93
 -19  17   1    0.67    0.89
 -17  -2   1    1.21    1.62
  19 -17   1    1.83    0.79
 -17  19  -1    0.42    0.82
 -19  17  -1   -0.17    1.34
 -19  17   2    2.65    0.94
 -19   2   2    0.63    1.87
 -17  -2   2    3.25    1.70
  17 -19   2   -0.39    1.09
  19 -17   2    2.81    0.90
 -17  -2  -2    3.94    1.76
 -17  19  -2    1.24    0.75
 -19   2  -2    7.02    2.07
 -19  17  -2    4.83    1.63
  -2 -17  -2    4.12    1.54
  19 -17  -2    1.66    0.99
  19 -17  -2    1.97    0.88
  17 -19  -2    4.11    1.22
 -19  17   3   -0.02    0.81
 -17  -2   3    0.98    0.97
 -19   2   3   -2.59    1.75
   2 -19   3    0.97    1.52
  -2 -17   3    2.26    1.34
  17 -19   3   -0.13    1.04
  19 -17   3   -0.32    0.87
 -19   2  -3    0.43    2.00
 -17  -2  -3   -0.84    1.81
 -19  17  -3    0.94    1.27
 -17  19  -3    0.52    0.79
  -2 -17  -3    0.16    1.50
   2 -19  -3    1.88    1.63
  17 -19  -3    0.32    1.09
  19 -17  -3    0.23    0.70
  19 -17  -3    0.81    0.82
  17 -19  -3    0.12    1.15
  -2 -17  -3    0.85    1.62
   2 -19  -3    1.00    1.88
 -17  -2   4    3.48    1.71
 -19   2   4    1.64    1.91
   2 -19   4    2.37    1.07
  -2 -17   4    3.19    1.49
  17 -19   4    1.04    1.18
  19 -17   4    2.45    1.41
 -19   2  -4    3.51    1.40
 -17  -2  -4    3.37    2.11
  -2 -17  -4    2.24    1.73
  17 -19  -4    1.07    1.31
   2 -19  -4    0.81    1.85
  19 -17  -4    2.42    0.83
  19 -17  -4    0.45    0.95
  17 -19  -4    1.77    1.22
  -2 -17  -4    0.75    1.69
   2 -19  -4    2.75    1.96
 -17  -3   0    0.34    1.67
 -20  17   0    1.95    1.07
 -17  -3   1    2.77    1.61
 -20   3   1    2.87    1.87
 -20  17   1    0.06    1.00
 -17  -3  -1    0.39    1.02
 -20   3  -1    1.99    1.96
 -20  17  -1   -0.62    1.12
  20 -17  -1    1.47    0.85
 -20  17   2   -0.01    0.94
 -20   3   2   -1.31    1.83
 -17  -3   2   -1.49    1.53
  -3 -17   2    0.41    0.77
  17 -20   2   -0.59    1.05
  20 -17   2    0.17    0.78
  20 -17   2    0.33    0.77
 -17  -3  -2    1.03    1.67
 -20   3  -2   -1.45    1.97
 -20  17  -2    0.07    1.23
  20 -17  -2    0.46    0.59
  20 -17  -2   -0.34    0.75
 -18  18   0    0.35    0.73
 -18  18   1    0.21    0.92
  18 -18   1    0.85    0.83
 -18  18  -1   -0.11    0.76
 -18  18   2    0.10    0.71
 -18   0   2    0.21    1.72
  18 -18   2    1.42    0.92
 -18  18  -2    1.73    0.89
  18 -18  -2    1.84    0.85
 -18   0   3    0.19    1.68
   0 -18   3    1.45    1.40
  18 -18   3    0.14    0.92
 -18   0  -3    0.62    1.84
 -18  18  -3    0.89    1.33
   0 -18  -3    0.12    1.52
  18 -18  -3   -0.65    0.87
  18 -18  -3    0.50    0.92
   0 -18  -3   -1.57    1.76
 -18   0   4   -0.09    1.68
   0 -18   4    0.88    1.45
  18 -18   4   -1.06    0.99
 -18   0  -4    1.35    1.97
   0 -18  -4    1.73    1.61
  18 -18  -4    1.35    0.97
  18 -18  -4   -0.72    0.95
   0 -18  -4   -0.34    1.06
 -19  18   0   -0.05    0.82
 -18  19   0    0.44    0.64
 -18  19   1    1.70    0.65
 -19  18   1   -0.02    1.07
 -18  19  -1   -0.43    0.94
 -19  18  -1    0.76    0.89
 -19  18   2    0.89    0.79
 -19   1   2    1.55    1.80
 -18  -1   2    1.54    1.71
  18 -19   2   -0.06    0.94
  19 -18   2    0.42    0.86
 -18  -1  -2    3.44    1.82
 -18  19  -2   -0.06    0.77
 -19  18  -2    1.18    1.02
  19 -18  -2    1.17    1.20
   0   0   0    0.00    0.00
;
_shelx_hkl_checksum   57842

