####################################################################### 
# 
# This file contains crystal structure data downloaded from the 
# Cambridge Structural Database (CSD) hosted by the Cambridge 
# Crystallographic Data Centre (CCDC).
# 
# Full information about CCDC data access policies and citation 
# guidelines are available at http://www.ccdc.cam.ac.uk/access/V1 
# 
# Audit and citation data items may have been added by the CCDC. 
# Please retain this information to preserve the provenance of 
# this file and to allow appropriate attribution of the data. 
# 
#######################################################################

data_SION-1
_audit_block_doi                 10.5517/ccdc.csd.cc1mgqjb
_database_code_depnum_ccdc_archive 'CCDC 1503702'
loop_
_citation_id
_citation_doi
_citation_year
1 10.1039/C7CE00589J 2017
_audit_update_record             
;
2017-05-01 deposited with the CCDC.	2023-03-30 downloaded from the CCDC.
;
_audit_creation_date             2017-04-25
_audit_creation_method           
;
Olex2 1.2
(compiled 2017.03.02 svn.r3394 for OlexSys, GUI svn.r5324)
;
_shelx_SHELXL_version_number     2014/7
_chemical_name_common            ?
_chemical_name_systematic        ?
_chemical_formula_moiety         'C11 H10 N O7 Tb'
_chemical_formula_sum            'C11 H10 N O7 Tb'
_chemical_formula_weight         427.12
_chemical_melting_point          ?
loop_
_atom_type_symbol
_atom_type_description
_atom_type_scat_dispersion_real
_atom_type_scat_dispersion_imag
_atom_type_scat_source
C C 0.0033 0.0016 'International Tables Vol C Tables 4.2.6.8 and 6.1.1.4'
H H 0.0000 0.0000 'International Tables Vol C Tables 4.2.6.8 and 6.1.1.4'
N N 0.0061 0.0033 'International Tables Vol C Tables 4.2.6.8 and 6.1.1.4'
O O 0.0106 0.0060 'International Tables Vol C Tables 4.2.6.8 and 6.1.1.4'
Tb Tb -0.1723 4.1537 'International Tables Vol C Tables 4.2.6.8 and 6.1.1.4'

_shelx_space_group_comment       
;
The symmetry employed for this shelxl refinement is uniquely defined
by the following loop, which should always be used as a source of
symmetry information in preference to the above space-group names.
They are only intended as comments.
;
_space_group_crystal_system      monoclinic
_space_group_IT_number           14
_space_group_name_H-M_alt        'P 1 21/n 1'
_space_group_name_Hall           '-P 2yn'
loop_
_space_group_symop_operation_xyz
'x, y, z'
'-x+1/2, y+1/2, -z+1/2'
'-x, -y, -z'
'x-1/2, -y-1/2, z-1/2'

_cell_length_a                   13.388(3)
_cell_length_b                   6.6366(12)
_cell_length_c                   15.567(2)
_cell_angle_alpha                90
_cell_angle_beta                 98.599(14)
_cell_angle_gamma                90
_cell_volume                     1367.6(4)
_cell_formula_units_Z            4
_cell_measurement_reflns_used    5339
_cell_measurement_temperature    293(2)
_cell_measurement_theta_max      30.375
_cell_measurement_theta_min      2.173
_shelx_estimated_absorpt_T_max   ?
_shelx_estimated_absorpt_T_min   ?
_exptl_absorpt_coefficient_mu    5.200
_exptl_absorpt_correction_T_max  0.7461
_exptl_absorpt_correction_T_min  0.5862
_exptl_absorpt_correction_type   multi-scan
_exptl_absorpt_process_details   
'SADABS-2014/5 (Bruker,2014/5) was used for absorption correction. wR2(int) was 0.1157 before and 0.0610 after correction. The Ratio of minimum to maximum transmission is 0.7857. The \l/2 correction factor is Not present.'
_exptl_absorpt_special_details   ?
_exptl_crystal_colour            orange
_exptl_crystal_colour_primary    orange
_exptl_crystal_density_diffrn    2.074
_exptl_crystal_density_meas      ?
_exptl_crystal_density_method    ?
_exptl_crystal_description       block
_exptl_crystal_F_000             816
_exptl_crystal_preparation       ?
_exptl_crystal_recrystallization_method ?
_exptl_crystal_size_max          0.062
_exptl_crystal_size_mid          0.059
_exptl_crystal_size_min          0.024
_exptl_transmission_factor_max   ?
_exptl_transmission_factor_min   ?
_diffrn_reflns_av_R_equivalents  0.0666
_diffrn_reflns_av_unetI/netI     0.0711
_diffrn_reflns_Laue_measured_fraction_full 0.999
_diffrn_reflns_Laue_measured_fraction_max 0.971
_diffrn_reflns_limit_h_max       19
_diffrn_reflns_limit_h_min       -18
_diffrn_reflns_limit_k_max       9
_diffrn_reflns_limit_k_min       -9
_diffrn_reflns_limit_l_max       21
_diffrn_reflns_limit_l_min       -22
_diffrn_reflns_number            14568
_diffrn_reflns_point_group_measured_fraction_full 0.999
_diffrn_reflns_point_group_measured_fraction_max 0.971
_diffrn_reflns_theta_full        26.000
_diffrn_reflns_theta_max         30.539
_diffrn_reflns_theta_min         2.647
_diffrn_ambient_temperature      293(2)
_diffrn_detector_area_resol_mean ?
_diffrn_measured_fraction_theta_full 0.999
_diffrn_measured_fraction_theta_max 0.971
_diffrn_measurement_device_type  'Bruker D8 Venture'
_diffrn_measurement_method       '\f and \w scans'
_diffrn_radiation_type           MoK\a
_diffrn_radiation_wavelength     0.71073
_diffrn_source                   'microfocus sealed X-ray tube'
_diffrn_special_details          ?
_diffrn_standards_number         0
_reflns_Friedel_coverage         0.000
_reflns_Friedel_fraction_full    .
_reflns_Friedel_fraction_max     .
_reflns_number_gt                3034
_reflns_number_total             4070
_reflns_special_details          
;
 Reflections were merged by SHELXL according to the crystal
 class for the calculation of statistics and refinement.
 
 _reflns_Friedel_fraction is defined as the number of unique
 Friedel pairs measured divided by the number that would be
 possible theoretically, ignoring centric projections and
 systematic absences.
;
_reflns_threshold_expression     'I > 2\s(I)'
_computing_cell_refinement       'SAINT v8.34A (Bruker, 2013)'
_computing_data_collection       ?
_computing_data_reduction        'SAINT v8.34A (Bruker, 2013)'
_computing_molecular_graphics    'Olex2 (Dolomanov et al., 2009)'
_computing_publication_material  'Olex2 (Dolomanov et al., 2009)'
_computing_structure_refinement  'ShelXL (Sheldrick, 2015)'
_computing_structure_solution    ?
_refine_diff_density_max         0.910
_refine_diff_density_min         -1.001
_refine_diff_density_rms         0.234
_refine_ls_extinction_coef       .
_refine_ls_extinction_method     none
_refine_ls_goodness_of_fit_ref   1.055
_refine_ls_hydrogen_treatment    constr
_refine_ls_matrix_type           full
_refine_ls_number_parameters     225
_refine_ls_number_reflns         4070
_refine_ls_number_restraints     40
_refine_ls_R_factor_all          0.0681
_refine_ls_R_factor_gt           0.0369
_refine_ls_restrained_S_all      1.079
_refine_ls_shift/su_max          0.001
_refine_ls_shift/su_mean         0.000
_refine_ls_structure_factor_coef Fsqd
_refine_ls_weighting_details     
'w=1/[\s^2^(Fo^2^)+(0.0047P)^2^+2.2406P] where P=(Fo^2^+2Fc^2^)/3'
_refine_ls_weighting_scheme      calc
_refine_ls_wR_factor_gt          0.0496
_refine_ls_wR_factor_ref         0.0552
_refine_special_details          ?
_olex2_refinement_description    
;
1. Fixed Uiso
 At 1.2 times of:
  All C(H) groups
 At 1.5 times of:
  All C(H,H,H) groups, All O(H) groups
2. Restrained distances
 N1-C2B \\sim N1-C3B
 with sigma of 0.02
 N1-C2A \\sim N1-C3A
 with sigma of 0.02
3. Restrained planarity
 N1, C3A, C1A, C2A
 with sigma of 0.1
 N1, C1B, C2B, C3B
 with sigma of 0.1
4. Uiso/Uaniso restraints and constraints
Uanis(C3B) \\sim Ueq, Uanis(C2A) \\sim Ueq, Uanis(C3A) \\sim Ueq, Uanis(C2B)
\\sim Ueq: with sigma of 0.0075 and sigma for terminal atoms of 0.015
Uanis(O1B) \\sim Ueq: with sigma of 0.01 and sigma for terminal atoms of 0.02
Uanis(O1A) \\sim Ueq: with sigma of 0.003 and sigma for terminal atoms of 0.006
5. Others
 Sof(C1A)=Sof(H1AA)=Sof(C2A)=Sof(H2AA)=Sof(H2AB)=Sof(H2AC)=Sof(C3A)=Sof(H3AA)=
 Sof(H3AB)=Sof(H3AC)=1-FVAR(1)
 Sof(C1B)=Sof(H1BA)=Sof(C2B)=Sof(H2BA)=Sof(H2BB)=Sof(H2BC)=Sof(C3B)=Sof(H3BA)=
 Sof(H3BB)=Sof(H3BC)=FVAR(1)
 Sof(O1B)=Sof(H1B)=Sof(H13)=1-FVAR(2)
 Sof(O1A)=Sof(H1A)=Sof(H14)=FVAR(2)
6.a Aromatic/amide H refined with riding coordinates:
 C1A(H1AA), C1B(H1BA), C4(H4), C13(H13), C14(H14)
6.b Idealised Me refined as rotating group:
 C2A(H2AA,H2AB,H2AC), C2B(H2BA,H2BB,H2BC), C3A(H3AA,H3AB,H3AC), C3B(H3BA,H3BB,
 H3BC)
6.c Idealised tetrahedral OH refined as rotating group:
 O1A(H1A), O1B(H1B)
;
_atom_sites_solution_hydrogens   geom
_atom_sites_solution_primary     ?
_atom_sites_solution_secondary   ?
loop_
_atom_site_label
_atom_site_type_symbol
_atom_site_fract_x
_atom_site_fract_y
_atom_site_fract_z
_atom_site_U_iso_or_equiv
_atom_site_adp_type
_atom_site_occupancy
_atom_site_site_symmetry_order
_atom_site_calc_flag
_atom_site_refinement_flags_posn
_atom_site_refinement_flags_adp
_atom_site_refinement_flags_occupancy
_atom_site_disorder_assembly
_atom_site_disorder_group
Tb1 Tb 0.33134(2) 0.57866(3) 0.28752(2) 0.00976(5) Uani 1 1 d . . . . .
O1A O -0.0445(4) 0.1572(7) 0.4010(3) 0.0479(16) Uani 0.830(7) 1 d . U P A 1
H1A H 0.0008 0.1283 0.3731 0.072 Uiso 0.830(7) 1 calc GR . P A 1
O1B O -0.1333(19) 0.203(3) 0.5311(17) 0.052(8) Uani 0.170(7) 1 d . U P A 2
H1B H -0.1581 0.2231 0.5754 0.078 Uiso 0.170(7) 1 calc GR . P A 2
O2 O 0.4346(2) 0.6658(4) 0.4018(2) 0.0237(8) Uani 1 1 d . . . . .
O3 O 0.4814(3) 0.4197(5) 0.2546(2) 0.0352(8) Uani 1 1 d . . . . .
O7 O 0.7130(2) 1.0908(4) 0.67639(17) 0.0139(6) Uani 1 1 d . . . . .
O8 O 0.6800(2) 0.7698(4) 0.67351(18) 0.0165(7) Uani 1 1 d . . . . .
O9 O 0.1919(2) 0.5440(4) 0.3591(2) 0.0251(8) Uani 1 1 d . . . . .
O11 O 0.1029(3) 0.2666(5) 0.3188(2) 0.0310(8) Uani 1 1 d . . . . .
N1 N 0.6245(4) 0.2571(9) 0.3116(4) 0.0627(16) Uani 1 1 d D . . . .
C1A C 0.5361(12) 0.279(2) 0.2633(11) 0.044(4) Uani 0.411(11) 1 d . . P B 2
H1AA H 0.5129 0.1667 0.2308 0.053 Uiso 0.411(11) 1 calc R . P B 2
C1B C 0.5554(8) 0.3786(16) 0.3138(8) 0.042(3) Uani 0.589(11) 1 d . . P B 1
H1BA H 0.5574 0.4500 0.3655 0.050 Uiso 0.589(11) 1 calc R . P B 1
C2A C 0.6791(17) 0.070(3) 0.3289(16) 0.097(8) Uani 0.411(11) 1 d D U P B 2
H2AA H 0.6701 0.0213 0.3853 0.145 Uiso 0.411(11) 1 calc GR . P B 2
H2AB H 0.7496 0.0930 0.3275 0.145 Uiso 0.411(11) 1 calc GR . P B 2
H2AC H 0.6538 -0.0274 0.2856 0.145 Uiso 0.411(11) 1 calc GR . P B 2
C2B C 0.6243(13) 0.145(2) 0.2281(10) 0.136(8) Uani 0.589(11) 1 d D U P B 1
H2BA H 0.5918 0.0168 0.2315 0.205 Uiso 0.589(11) 1 calc GR . P B 1
H2BB H 0.6926 0.1242 0.2181 0.205 Uiso 0.589(11) 1 calc GR . P B 1
H2BC H 0.5884 0.2217 0.1810 0.205 Uiso 0.589(11) 1 calc GR . P B 1
C3 C 0.4640(3) 0.8286(6) 0.4484(3) 0.0160(9) Uani 1 1 d . . . . .
C3A C 0.6552(15) 0.431(3) 0.3730(12) 0.091(7) Uani 0.411(11) 1 d D U P B 2
H3AA H 0.6269 0.5540 0.3475 0.136 Uiso 0.411(11) 1 calc GR . P B 2
H3AB H 0.7275 0.4417 0.3833 0.136 Uiso 0.411(11) 1 calc GR . P B 2
H3AC H 0.6306 0.4078 0.4270 0.136 Uiso 0.411(11) 1 calc GR . P B 2
C3B C 0.7057(10) 0.196(2) 0.3789(10) 0.091(5) Uani 0.589(11) 1 d D U P B 1
H3BA H 0.7112 0.2909 0.4260 0.136 Uiso 0.589(11) 1 calc GR . P B 1
H3BB H 0.7681 0.1929 0.3556 0.136 Uiso 0.589(11) 1 calc GR . P B 1
H3BC H 0.6916 0.0647 0.3998 0.136 Uiso 0.589(11) 1 calc GR . P B 1
C4 C 0.5407(3) 0.8102(5) 0.5198(3) 0.0163(9) Uani 1 1 d . . . . .
H4 H 0.5682 0.6837 0.5340 0.020 Uiso 1 1 calc R . . . .
C5 C 0.5772(3) 0.9765(6) 0.5706(3) 0.0143(9) Uani 1 1 d . . . . .
C6 C 0.6587(3) 0.9429(6) 0.6425(2) 0.0110(8) Uani 1 1 d . . . . .
C10 C 0.1231(3) 0.4214(7) 0.3667(3) 0.0215(9) Uani 1 1 d . . . . .
C12 C 0.0592(4) 0.4583(6) 0.4355(3) 0.0227(11) Uani 1 1 d . . . . .
C13 C -0.0176(4) 0.3255(7) 0.4504(3) 0.0324(13) Uani 1 1 d . . . . .
H13 H -0.0296 0.2092 0.4171 0.039 Uiso 0.170(7) 1 calc R . P A 2
C14 C -0.0757(4) 0.3673(7) 0.5147(3) 0.0306(12) Uani 1 1 d . . . . .
H14 H -0.1263 0.2781 0.5246 0.037 Uiso 0.830(7) 1 calc R . P A 1

loop_
_atom_site_aniso_label
_atom_site_aniso_U_11
_atom_site_aniso_U_22
_atom_site_aniso_U_33
_atom_site_aniso_U_23
_atom_site_aniso_U_13
_atom_site_aniso_U_12
Tb1 0.01185(9) 0.00805(8) 0.00861(9) -0.00035(9) -0.00097(6) -0.00166(9)
O1A 0.053(3) 0.043(3) 0.057(3) -0.037(2) 0.040(2) -0.026(2)
O1B 0.055(14) 0.041(12) 0.071(15) -0.033(10) 0.048(12) -0.022(10)
O2 0.032(2) 0.0083(13) 0.0238(18) -0.0069(12) -0.0181(15) 0.0040(13)
O3 0.027(2) 0.0357(19) 0.044(2) 0.0054(19) 0.0087(17) 0.0127(18)
O7 0.0171(15) 0.0074(12) 0.0147(14) -0.0035(12) -0.0057(12) -0.0004(12)
O8 0.0208(18) 0.0076(13) 0.0168(15) 0.0032(12) -0.0110(13) 0.0019(12)
O9 0.0275(19) 0.0207(17) 0.0319(19) -0.0074(14) 0.0208(15) -0.0085(14)
O11 0.035(2) 0.0277(18) 0.035(2) -0.0170(15) 0.0220(17) -0.0123(15)
N1 0.036(3) 0.067(4) 0.082(5) 0.012(3) -0.001(3) 0.015(3)
C1A 0.036(9) 0.044(9) 0.053(11) -0.008(8) 0.010(8) 0.013(7)
C1B 0.034(6) 0.048(7) 0.047(7) 0.015(5) 0.016(5) 0.012(5)
C2A 0.083(12) 0.090(12) 0.115(14) 0.013(11) 0.007(11) 0.042(10)
C2B 0.115(12) 0.136(12) 0.148(13) -0.065(10) -0.012(10) 0.041(9)
C3 0.020(2) 0.0122(19) 0.014(2) -0.0014(16) -0.0052(18) -0.0042(17)
C3A 0.067(11) 0.110(12) 0.090(12) -0.008(10) -0.007(9) -0.011(10)
C3B 0.061(8) 0.114(11) 0.092(10) 0.023(8) -0.002(7) 0.045(8)
C4 0.018(2) 0.0060(18) 0.022(2) 0.0010(16) -0.0079(19) 0.0021(16)
C5 0.017(2) 0.0113(19) 0.013(2) 0.0021(15) -0.0036(18) 0.0010(15)
C6 0.013(2) 0.0086(18) 0.0108(19) -0.0003(16) 0.0000(15) -0.0011(15)
C10 0.024(2) 0.021(2) 0.022(2) -0.005(2) 0.0097(19) 0.002(2)
C12 0.026(3) 0.020(2) 0.026(3) -0.0085(18) 0.017(2) -0.0097(18)
C13 0.042(3) 0.025(2) 0.036(3) -0.022(2) 0.024(3) -0.015(2)
C14 0.036(3) 0.026(3) 0.034(3) -0.013(2) 0.020(3) -0.016(2)

_geom_special_details            
;
 All esds (except the esd in the dihedral angle between two l.s. planes)
 are estimated using the full covariance matrix.  The cell esds are taken
 into account individually in the estimation of esds in distances, angles
 and torsion angles; correlations between esds in cell parameters are only
 used when they are defined by crystal symmetry.  An approximate (isotropic)
 treatment of cell esds is used for estimating esds involving l.s. planes.
;
loop_
_geom_bond_atom_site_label_1
_geom_bond_atom_site_label_2
_geom_bond_distance
_geom_bond_site_symmetry_2
_geom_bond_publ_flag
Tb1 O2 2.162(3) . ?
Tb1 O3 2.391(3) . ?
Tb1 O7 2.362(3) 3_676 ?
Tb1 O7 2.439(3) 4_575 ?
Tb1 O8 2.682(3) 4_575 ?
Tb1 O8 2.401(3) 3_666 ?
Tb1 O9 2.324(3) . ?
Tb1 O11 2.346(3) 2 ?
Tb1 C6 2.983(4) 4_575 ?
O1A H1A 0.8200 . ?
O1A C13 1.374(5) . ?
O1B H1B 0.8200 . ?
O1B C14 1.38(2) . ?
O2 C3 1.328(4) . ?
O3 C1A 1.180(14) . ?
O3 C1B 1.278(11) . ?
O7 Tb1 2.362(3) 3_676 ?
O7 Tb1 2.439(3) 4_676 ?
O7 C6 1.287(4) . ?
O8 Tb1 2.682(3) 4_676 ?
O8 Tb1 2.401(3) 3_666 ?
O8 C6 1.262(4) . ?
O9 C10 1.248(5) . ?
O11 Tb1 2.346(3) 2_545 ?
O11 C10 1.275(5) . ?
N1 C1A 1.312(17) . ?
N1 C1B 1.231(11) . ?
N1 C2A 1.444(16) . ?
N1 C2B 1.498(13) . ?
N1 C3A 1.516(16) . ?
N1 C3B 1.451(12) . ?
C1A H1AA 0.9300 . ?
C1B H1BA 0.9300 . ?
C2A H2AA 0.9600 . ?
C2A H2AB 0.9600 . ?
C2A H2AC 0.9600 . ?
C2B H2BA 0.9600 . ?
C2B H2BB 0.9600 . ?
C2B H2BC 0.9600 . ?
C3 C4 1.401(6) . ?
C3 C5 1.420(5) 3_676 ?
C3A H3AA 0.9600 . ?
C3A H3AB 0.9600 . ?
C3A H3AC 0.9600 . ?
C3B H3BA 0.9600 . ?
C3B H3BB 0.9600 . ?
C3B H3BC 0.9600 . ?
C4 H4 0.9300 . ?
C4 C5 1.401(5) . ?
C5 C3 1.420(5) 3_676 ?
C5 C6 1.460(5) . ?
C6 Tb1 2.983(4) 4_676 ?
C10 C12 1.487(6) . ?
C12 C13 1.400(6) . ?
C12 C14 1.392(6) 3_566 ?
C13 H13 0.9300 . ?
C13 C14 1.384(6) . ?
C14 C12 1.392(6) 3_566 ?
C14 H14 0.9300 . ?

loop_
_geom_angle_atom_site_label_1
_geom_angle_atom_site_label_2
_geom_angle_atom_site_label_3
_geom_angle
_geom_angle_site_symmetry_1
_geom_angle_site_symmetry_3
_geom_angle_publ_flag
O2 Tb1 O3 80.79(12) . . ?
O2 Tb1 O7 73.04(9) . 3_676 ?
O2 Tb1 O7 167.05(10) . 4_575 ?
O2 Tb1 O8 96.11(9) . 3_666 ?
O2 Tb1 O8 140.45(9) . 4_575 ?
O2 Tb1 O9 95.33(12) . . ?
O2 Tb1 O11 100.20(13) . 2 ?
O2 Tb1 C6 164.40(10) . 4_575 ?
O3 Tb1 O7 97.01(11) . 4_575 ?
O3 Tb1 O8 73.49(11) . 3_666 ?
O3 Tb1 O8 126.85(11) . 4_575 ?
O3 Tb1 C6 113.43(11) . 4_575 ?
O7 Tb1 O3 135.22(11) 3_676 . ?
O7 Tb1 O7 115.93(6) 3_676 4_575 ?
O7 Tb1 O8 50.00(8) 4_575 4_575 ?
O7 Tb1 O8 143.76(10) 3_676 3_666 ?
O7 Tb1 O8 67.49(8) 3_676 4_575 ?
O7 Tb1 C6 24.97(9) 4_575 4_575 ?
O7 Tb1 C6 91.75(9) 3_676 4_575 ?
O8 Tb1 O7 71.11(9) 3_666 4_575 ?
O8 Tb1 O8 117.28(7) 3_666 4_575 ?
O8 Tb1 C6 94.24(9) 3_666 4_575 ?
O8 Tb1 C6 25.02(9) 4_575 4_575 ?
O9 Tb1 O3 145.05(11) . . ?
O9 Tb1 O7 79.11(10) . 4_575 ?
O9 Tb1 O7 74.30(10) . 3_676 ?
O9 Tb1 O8 76.85(11) . 4_575 ?
O9 Tb1 O8 72.43(10) . 3_666 ?
O9 Tb1 O11 143.48(11) . 2 ?
O9 Tb1 C6 76.74(11) . 4_575 ?
O11 Tb1 O3 70.60(11) 2 . ?
O11 Tb1 O7 78.96(10) 2 3_676 ?
O11 Tb1 O7 90.98(11) 2 4_575 ?
O11 Tb1 O8 70.12(11) 2 4_575 ?
O11 Tb1 O8 137.27(11) 2 3_666 ?
O11 Tb1 C6 79.73(12) 2 4_575 ?
C13 O1A H1A 109.5 . . ?
C14 O1B H1B 109.5 . . ?
C3 O2 Tb1 140.2(3) . . ?
C1A O3 Tb1 148.3(8) . . ?
C1B O3 Tb1 121.7(6) . . ?
Tb1 O7 Tb1 114.79(10) 3_676 4_676 ?
C6 O7 Tb1 131.2(2) . 3_676 ?
C6 O7 Tb1 101.9(2) . 4_676 ?
Tb1 O8 Tb1 105.30(9) 3_666 4_676 ?
C6 O8 Tb1 90.9(2) . 4_676 ?
C6 O8 Tb1 162.6(3) . 3_666 ?
C10 O9 Tb1 140.1(3) . . ?
C10 O11 Tb1 140.5(3) . 2_545 ?
C1A N1 C2A 126.3(14) . . ?
C1A N1 C3A 114.3(11) . . ?
C1B N1 C2B 116.5(10) . . ?
C1B N1 C3B 130.3(11) . . ?
C2A N1 C3A 117.0(13) . . ?
C3B N1 C2B 113.1(10) . . ?
O3 C1A N1 130.2(16) . . ?
O3 C1A H1AA 114.9 . . ?
N1 C1A H1AA 114.9 . . ?
O3 C1B H1BA 115.7 . . ?
N1 C1B O3 128.6(12) . . ?
N1 C1B H1BA 115.7 . . ?
N1 C2A H2AA 109.5 . . ?
N1 C2A H2AB 109.5 . . ?
N1 C2A H2AC 109.5 . . ?
H2AA C2A H2AB 109.5 . . ?
H2AA C2A H2AC 109.5 . . ?
H2AB C2A H2AC 109.5 . . ?
N1 C2B H2BA 109.5 . . ?
N1 C2B H2BB 109.5 . . ?
N1 C2B H2BC 109.5 . . ?
H2BA C2B H2BB 109.5 . . ?
H2BA C2B H2BC 109.5 . . ?
H2BB C2B H2BC 109.5 . . ?
O2 C3 C4 119.0(4) . . ?
O2 C3 C5 123.6(4) . 3_676 ?
C4 C3 C5 117.4(3) . 3_676 ?
N1 C3A H3AA 109.5 . . ?
N1 C3A H3AB 109.5 . . ?
N1 C3A H3AC 109.5 . . ?
H3AA C3A H3AB 109.5 . . ?
H3AA C3A H3AC 109.5 . . ?
H3AB C3A H3AC 109.5 . . ?
N1 C3B H3BA 109.5 . . ?
N1 C3B H3BB 109.5 . . ?
N1 C3B H3BC 109.5 . . ?
H3BA C3B H3BB 109.5 . . ?
H3BA C3B H3BC 109.5 . . ?
H3BB C3B H3BC 109.5 . . ?
C3 C4 H4 119.0 . . ?
C3 C4 C5 122.1(4) . . ?
C5 C4 H4 119.0 . . ?
C3 C5 C6 121.4(3) 3_676 . ?
C4 C5 C3 120.6(4) . 3_676 ?
C4 C5 C6 118.0(3) . . ?
O7 C6 Tb1 53.15(19) . 4_676 ?
O7 C6 C5 120.6(3) . . ?
O8 C6 Tb1 64.0(2) . 4_676 ?
O8 C6 O7 117.2(3) . . ?
O8 C6 C5 122.2(3) . . ?
C5 C6 Tb1 173.7(3) . 4_676 ?
O9 C10 O11 124.4(4) . . ?
O9 C10 C12 118.3(4) . . ?
O11 C10 C12 117.4(4) . . ?
C13 C12 C10 122.1(4) . . ?
C14 C12 C10 118.5(4) 3_566 . ?
C14 C12 C13 119.3(4) 3_566 . ?
O1A C13 C12 123.8(4) . . ?
O1A C13 C14 116.0(4) . . ?
C12 C13 H13 120.0 . . ?
C14 C13 C12 120.0(4) . . ?
C14 C13 H13 120.0 . . ?
O1B C14 C12 126.8(10) . 3_566 ?
O1B C14 C13 111.4(9) . . ?
C12 C14 H14 119.7 3_566 . ?
C13 C14 C12 120.6(4) . 3_566 ?
C13 C14 H14 119.7 . . ?

loop_
_geom_torsion_atom_site_label_1
_geom_torsion_atom_site_label_2
_geom_torsion_atom_site_label_3
_geom_torsion_atom_site_label_4
_geom_torsion
_geom_torsion_site_symmetry_1
_geom_torsion_site_symmetry_2
_geom_torsion_site_symmetry_3
_geom_torsion_site_symmetry_4
_geom_torsion_publ_flag
Tb1 O2 C3 C4 -177.5(3) . . . . ?
Tb1 O2 C3 C5 1.7(8) . . . 3_676 ?
Tb1 O3 C1A N1 -103.3(19) . . . . ?
Tb1 O3 C1B N1 160.2(7) . . . . ?
Tb1 O7 C6 Tb1 -139.0(3) 3_676 . . 4_676 ?
Tb1 O7 C6 O8 0.1(4) 4_676 . . . ?
Tb1 O7 C6 O8 -138.9(3) 3_676 . . . ?
Tb1 O7 C6 C5 42.0(5) 3_676 . . . ?
Tb1 O7 C6 C5 -179.1(3) 4_676 . . . ?
Tb1 O8 C6 Tb1 159.1(9) 3_666 . . 4_676 ?
Tb1 O8 C6 O7 -0.1(3) 4_676 . . . ?
Tb1 O8 C6 O7 159.0(7) 3_666 . . . ?
Tb1 O8 C6 C5 179.1(3) 4_676 . . . ?
Tb1 O8 C6 C5 -21.9(11) 3_666 . . . ?
Tb1 O9 C10 O11 -11.4(8) . . . . ?
Tb1 O9 C10 C12 169.4(3) . . . . ?
Tb1 O11 C10 O9 9.8(8) 2_545 . . . ?
Tb1 O11 C10 C12 -171.0(3) 2_545 . . . ?
O1A C13 C14 C12 -175.6(5) . . . 3_566 ?
O2 C3 C4 C5 178.4(4) . . . . ?
O9 C10 C12 C13 -178.1(5) . . . . ?
O9 C10 C12 C14 3.0(7) . . . 3_566 ?
O11 C10 C12 C13 2.7(7) . . . . ?
O11 C10 C12 C14 -176.2(5) . . . 3_566 ?
C2A N1 C1A O3 169.4(16) . . . . ?
C2B N1 C1B O3 1.7(15) . . . . ?
C3 C4 C5 C3 0.9(7) . . . 3_676 ?
C3 C4 C5 C6 -178.7(4) . . . . ?
C3 C5 C6 O7 -18.2(6) 3_676 . . . ?
C3 C5 C6 O8 162.7(4) 3_676 . . . ?
C3A N1 C1A O3 8(2) . . . . ?
C3B N1 C1B O3 -175.2(11) . . . . ?
C4 C5 C6 O7 161.4(4) . . . . ?
C4 C5 C6 O8 -17.7(6) . . . . ?
C5 C3 C4 C5 -0.9(7) 3_676 . . . ?
C10 C12 C13 O1A -3.6(9) . . . . ?
C10 C12 C13 C14 -179.4(5) . . . . ?
C12 C13 C14 O1B -168.2(14) . . . . ?
C12 C13 C14 C12 0.5(9) . . . 3_566 ?
C14 C12 C13 O1A 175.3(6) 3_566 . . . ?
C14 C12 C13 C14 -0.5(9) 3_566 . . . ?

loop_
_refln_index_h
_refln_index_k
_refln_index_l
_refln_F_squared_meas
_refln_F_squared_sigma
_refln_scale_group_code
2 0 0 129.785 9.3505 1
-2 0 0 127.328 8.27469 1
-3 0 0 4.56155 4.42962 1
3 0 0 -2.8014 4.06492 1
4 0 0 1645.25 53.408 1
-4 0 0 1667.55 51.6542 1
-5 0 0 5.65513 6.45102 1
5 0 0 3.37321 7.22012 1
-6 0 0 5175.8 141.773 1
6 0 0 5221.78 146.257 1
7 0 0 9.05261 14.1394 1
-7 0 0 9.05911 9.33979 1
-8 0 0 2745.41 88.2629 1
8 0 0 2689.11 95.2891 1
9 0 0 -7.3505 14.4951 1
-9 0 0 -7.5046 12.2537 1
10 0 0 463.067 41.8294 2
10 0 0 443.116 43.0463 1
-10 0 0 465.154 34.6981 1
11 0 0 7.62275 22.0067 1
11 0 0 21.8766 22.7916 2
-11 0 0 6.64441 16.6247 1
12 0 0 1399.5 78.3307 2
12 0 0 1523.15 83.2731 1
13 0 0 -12.555 31.4121 1
13 0 0 -38.526 26.377 2
14 0 0 660.35 77.4842 2
14 0 0 496.955 67.8596 1
15 0 0 -124.16 47.3641 1
15 0 0 -14.934 44.615 2
16 0 0 127.361 69.1247 1
16 0 0 22.1628 55.5347 2
17 0 0 -143.34 75.776 1
17 0 0 -44.761 70.9219 2
18 0 0 925.51 133.348 1
0 -1 0 -0.7152 1.88636 3
0 1 0 1.83836 2.29201 3
0 1 0 2.98311 2.77589 1
0 1 0 0.83722 2.6405 2
-1 -1 0 242.83 9.19553 3
-1 -1 0 245.941 12.1404 1
1 -1 0 242.479 12.1087 2
-1 1 0 229.831 10.4541 3
1 1 0 256.053 12.916 1
-1 1 0 240.618 12.1608 2
2 -1 0 2492.63 67.0822 2
-2 -1 0 2408.71 67.4368 1
2 1 0 2402.57 67.8782 1
-2 1 0 2338.75 60.2971 1
-2 1 0 2424.95 66.8146 2
-3 -1 0 1673.43 53.1089 1
3 -1 0 1653.02 52.9986 2
3 -1 0 1710 47.7366 1
-3 1 0 1677.69 52.3669 2
3 1 0 1712.74 54.6437 1
-3 1 0 1701 46.0776 1
-4 -1 0 686.988 30.7694 1
4 -1 0 654.154 26.7173 1
4 -1 0 689.345 30.5319 2
4 1 0 701.02 33.077 1
-4 1 0 659.393 24.4972 1
5 -1 0 1029.78 38.6927 1
5 -1 0 993.614 42.8428 2
-5 -1 0 1004.9 41.2573 1
-5 1 0 1003.59 35.1383 1
5 1 0 1054.74 45.7968 1
6 -1 0 80.1465 13.6705 2
6 -1 0 82.7443 13.9076 1
-6 -1 0 65.0245 12.5214 1
-6 1 0 81.262 11.8401 1
6 1 0 60.5 14.096 1
7 -1 0 1320.74 52.9977 1
-7 -1 0 1306.52 53.977 1
7 -1 0 1262.22 56.4482 2
-7 1 0 1317.87 48.018 1
7 1 0 1338.87 59.2121 1
-8 -1 0 95.0919 18.3794 1
8 -1 0 88.3615 18.7271 2
8 -1 0 81.4153 19.5778 1
8 1 0 120.804 23.1327 1
-8 1 0 102.023 15.0553 1
9 -1 0 2318.74 90.1089 2
9 -1 0 2360.16 87.3284 1
-9 -1 0 2298.47 84.0508 1
-9 1 0 2327.66 77.3689 1
9 1 0 2255.57 93.864 1
-10 -1 0 263.723 32.2059 1
10 -1 0 202.437 30.8822 2
10 -1 0 241.39 32.519 1
10 1 0 211.619 32.3858 1
-10 1 0 242.519 27.6108 1
11 -1 0 563.346 52.4655 1
11 -1 0 553.379 50.9014 2
-11 1 0 671.844 41.8703 1
11 1 0 530.967 54.4655 1
12 -1 0 -30.626 24.3819 2
12 -1 0 14.3167 28.6002 1
12 1 0 11.7288 27.7151 1
13 -1 0 223.44 42.6154 2
13 -1 0 164.487 41.9864 1
13 1 0 155.384 41.4252 1
13 1 0 165.418 39.9898 2
14 -1 0 102.349 44.2814 1
14 -1 0 12.256 37.5578 2
14 1 0 41.1892 40.8412 1
14 1 0 -6.734 36.9501 2
15 -1 0 965.113 99.7156 1
15 -1 0 1146.71 101.225 2
15 1 0 1011.69 103.893 1
15 1 0 856.718 93.5867 2
16 -1 0 206.425 70.0932 1
16 -1 0 204.151 72.2877 2
16 1 0 142.905 74.9696 1
16 1 0 62.6839 65.1689 2
17 -1 0 263.181 85.8509 1
17 -1 0 225.106 78.1966 2
17 1 0 326.609 100.613 1
18 -1 0 -36.494 103.114 1
18 1 0 -140.35 108.486 1
0 -2 0 951.6 30.7711 3
0 2 0 972.468 31.879 1
0 2 0 973.532 29.7723 3
0 2 0 970.888 34.0866 2
-1 -2 0 2985 78.9813 3
1 -2 0 3009.63 80.6695 3
1 -2 0 2999.74 83.0742 2
-1 2 0 3142.16 79.7467 3
1 2 0 3160.09 78.0997 3
-1 2 0 2985.89 84.2938 2
1 2 0 3045.96 84.6827 1
-2 -2 0 1193.44 35.6948 3
2 -2 0 1217.46 41.4912 2
-2 2 0 1184.81 37.682 3
-2 2 0 1166.82 42.2244 2
2 2 0 1207.79 43.2478 1
-3 -2 0 20.0813 7.57718 1
3 -2 0 29.1921 8.57872 2
-3 -2 0 34.9179 6.37797 3
-3 2 0 18.877 8.5901 2
3 2 0 1.21085 7.08642 1
-4 -2 0 198.303 18.4865 1
4 -2 0 180.087 18.7534 2
4 2 0 218.574 21.6972 1
-4 2 0 210.784 18.5927 2
-4 2 0 180.748 10.0027 1
5 -2 0 2394.46 68.985 1
5 -2 0 2458.26 81.4706 2
-5 -2 0 2593.3 82.5322 1
-5 2 0 2560.87 80.5418 2
-5 2 0 2503.6 66.882 1
5 2 0 2451.91 85.4034 1
-6 -2 0 1404.9 57.0898 1
6 -2 0 1394.01 47.8536 1
6 -2 0 1397.9 58.0677 2
-6 2 0 1409.29 43.4894 1
-6 2 0 1444.3 56.6552 2
7 -2 0 2576.02 91.3189 2
7 -2 0 2536.38 79.499 1
-7 -2 0 2539.52 88.1454 1
7 2 0 2569.52 94.5614 1
-7 2 0 2456.97 72.7897 1
8 -2 0 443.897 38.5264 2
-8 -2 0 418.962 35.7961 1
8 -2 0 462.72 32.9406 1
8 2 0 456.282 41.2589 1
-8 2 0 431.507 25.1586 1
9 -2 0 128.467 25.2603 2
9 -2 0 158.13 21.9994 1
9 2 0 138.082 28.4509 1
-9 2 0 148.145 18.189 1
10 -2 0 73.1709 23.3676 2
10 -2 0 85.5043 23.8442 1
-10 2 0 98.7738 18.8676 1
10 2 0 81.8529 32.0432 1
11 -2 0 1639.24 76.7455 1
11 -2 0 1645.21 83.1692 2
11 2 0 1584.82 115.652 1
12 -2 0 771.698 65.7735 2
12 -2 0 816.122 63.6064 1
12 2 0 840.892 75.4093 1
13 -2 0 1045.35 82.3573 2
13 -2 0 919.29 75.3112 1
13 2 0 1021.43 89.5404 1
14 -2 0 32.4226 45.3674 2
14 -2 0 79.8048 41.0446 1
14 2 0 18.3019 48.8822 1
15 -2 0 30.072 52.7151 1
15 -2 0 121.559 59.7387 2
15 2 0 46.3492 57.7545 1
16 -2 0 57.9079 61.2574 2
16 -2 0 88.8952 76.6983 1
16 2 0 74.2938 76.3634 1
16 2 0 31.4107 57.2224 2
17 -2 0 324.355 90.0323 1
17 -2 0 220.855 88.7932 2
17 2 0 248.217 100.932 1
0 -3 0 2.21118 7.15954 3
0 3 0 3.78768 7.84264 3
0 3 0 3.84745 7.02179 2
0 3 0 7.6105 7.34443 1
1 -3 0 10.5322 7.30103 2
-1 -3 0 -0.7882 5.18582 3
1 -3 0 1.97535 6.43559 3
1 3 0 7.52908 7.48793 2
-1 3 0 -7.4072 7.68732 3
-1 3 0 -1.2257 7.69717 2
1 3 0 12.2266 7.56764 3
1 3 0 -0.23 6.4534 1
-1 3 0 -2.5499 6.05385 1
-2 -3 0 3040.8 86.1323 3
2 -3 0 3206.6 92.7109 2
-2 3 0 3183.3 87.4822 3
2 3 0 3226.46 84.3896 3
2 3 0 3119.38 94.9589 1
-2 3 0 3161.46 82.6087 1
-2 3 0 3243.37 94.983 2
3 -3 0 2.07076 8.05967 2
-3 -3 0 -2.4461 6.22377 3
3 3 0 13.5442 10.03 1
-3 3 0 -4.5083 11.7371 3
-3 3 0 -1.3929 8.45163 2
4 -3 0 4644.59 131.945 2
-4 3 0 4559.1 132.346 2
-4 3 0 4522.29 124.488 3
4 3 0 4540.69 136.335 1
5 -3 0 75.3358 16.6263 2
-5 -3 0 72.7632 11.5894 3
-5 3 0 96.6416 18.4881 2
5 3 0 105.761 20.5379 1
-6 -3 0 131.89 13.29 3
6 -3 0 81.3934 18.0314 2
6 3 0 100.905 24.4115 1
-6 3 0 119.844 21.029 2
-7 -3 0 83.3004 12.3782 3
7 -3 0 112.049 24.7663 2
-7 3 0 103.877 20.9929 2
7 3 0 74.3955 23.3906 1
8 -3 0 1671.36 74.7995 2
8 3 0 1785.77 82.6337 1
9 -3 0 -8.7658 17.9003 2
9 3 0 22.1702 22.3749 1
10 -3 0 2025.48 72.6511 1
10 -3 0 2058.14 91.6952 2
10 3 0 2037.99 101.746 1
11 -3 0 27.2326 22.4441 1
11 -3 0 25.9433 27.1404 2
11 3 0 24.5235 33.8307 1
12 -3 0 -32.491 32.4508 2
12 -3 0 43.432 28.3497 1
12 3 0 28.8097 39.4911 1
13 -3 0 -17.207 41.4876 2
13 -3 0 -9.6404 33.1422 1
13 3 0 -51.784 45.2561 1
14 -3 0 519.322 71.573 1
14 -3 0 481.531 71.7077 2
14 3 0 597.201 81.2397 1
15 -3 0 21.0409 58.9671 2
15 -3 0 59.8598 51.3168 1
15 3 0 80.6825 63.7376 1
16 -3 0 856.431 102.449 2
16 -3 0 985.491 109.868 1
16 3 0 610.044 103.39 1
0 -4 0 539.213 28.5525 3
0 4 0 600.81 30.8068 1
0 4 0 547.989 34.6189 2
-1 -4 0 2319.53 71.8403 3
1 4 0 2375.26 79.2943 2
-1 4 0 2301.47 79.0625 2
-1 4 0 2265.99 70.0672 1
1 4 0 2305.28 77.2033 1
2 -4 0 17.2769 9.97254 2
-2 -4 0 47.8423 10.7742 3
2 -4 0 8.8796 9.7018 3
-2 4 0 6.70217 12.5035 2
2 4 0 14.4098 11.3351 2
2 4 0 39.2221 14.9523 1
-2 4 0 29.0299 8.40154 1
3 -4 0 15.9718 10.9271 2
-3 -4 0 44.6446 10.977 3
-3 4 0 37.8006 15.1629 2
3 4 0 38.0331 15.2127 1
-3 4 0 20.9651 7.63273 1
4 -4 0 0.59594 12.1194 2
-4 -4 0 -2.5423 7.57623 3
-4 4 0 -25.685 13.2143 2
4 4 0 20.6384 14.287 1
-5 -4 0 2753.74 82.4797 3
5 -4 0 2769.56 93.3151 2
-5 4 0 2719.38 94.5623 2
5 4 0 2642.9 102.439 1
-6 -4 0 328.848 27.1438 3
6 -4 0 386.919 34.4074 2
6 4 0 401.491 43.1348 1
-6 4 0 408.895 34.8177 2
7 -4 0 1589.93 72.8795 2
-7 4 0 1625.82 71.3334 2
7 4 0 1729.2 83.1485 1
-8 -4 0 173.756 23.5933 3
8 -4 0 158.3 28.1233 2
-8 4 0 182.441 29.3598 2
8 4 0 156.872 34.65 1
9 -4 0 39.4527 25.191 2
-9 -4 0 54.1618 13.2277 3
9 4 0 69.215 30.4626 1
-10 -4 0 74.6157 19.5941 3
10 -4 0 71.0387 28.2124 2
10 4 0 62.4824 37.7503 1
11 -4 0 959.53 79.7022 2
-11 -4 0 1051.18 49.5322 3
11 4 0 1132.66 90.5333 1
12 -4 0 84.7631 38.5382 2
-12 -4 0 104.589 20.2953 3
12 4 0 130.094 53.6007 1
13 -4 0 977.185 99.2524 2
-13 -4 0 1046.49 52.0951 3
13 4 0 1101.77 114.139 1
-14 -4 0 29.9203 20.1675 3
14 -4 0 -33.85 58.2455 2
14 4 0 -36.05 64.4559 1
15 -4 0 -20.204 68.5789 2
-15 -4 0 -30.558 23.345 3
15 4 0 151.529 94.8621 1
-16 -4 0 37.8997 23.6494 3
16 -4 0 94.455 83.8242 2
-17 -4 0 323.963 40.4851 3
0 5 0 -19.07 15.3312 1
0 5 0 -11.34 16.3679 2
1 5 0 717.017 43.7828 2
-1 5 0 725.151 39.2063 1
1 5 0 790.13 45.1923 1
-1 5 0 692.542 44.7721 2
-2 5 0 734.29 36.9231 1
2 5 0 796.156 48.8741 1
-2 5 0 795.868 46.8061 2
2 5 0 768.082 46.4954 2
-3 -5 0 1123.03 49.0731 3
3 -5 0 1191.17 53.2492 2
3 5 0 1176.42 57.72 2
-3 5 0 1110.57 42.0405 1
-3 5 0 1208.26 60.4775 2
3 5 0 1192.41 62.7993 1
-4 -5 0 449.231 30.6911 3
4 -5 0 363.152 32.3539 2
4 5 0 476.552 46.3373 1
-4 5 0 410.103 39.5511 2
5 -5 0 736.452 45.2679 2
5 5 0 686.229 56.4599 1
-5 5 0 652.913 49.8022 2
-6 -5 0 10.3477 12.5118 3
6 -5 0 3.00709 17.7948 2
6 5 0 1.91832 26.5951 1
-6 5 0 21.4807 21.3363 2
-7 -5 0 311.482 28.3716 3
7 -5 0 306.462 40.4984 2
-7 5 0 244.259 35.1256 2
7 5 0 290.412 42.609 1
8 -5 0 367.646 49.3614 2
-8 -5 0 434.936 32.1807 3
-8 5 0 379.63 47.9343 2
8 5 0 481.688 61.6324 1
9 -5 0 1257.92 74.1787 2
-9 -5 0 1278.49 55.8522 3
-9 5 0 1178.71 71.5187 2
9 5 0 1128.38 85.8984 1
-10 -5 0 169.019 25.3788 3
10 5 0 222.953 48.4876 1
11 -5 0 406.441 58.4665 2
-11 -5 0 494.32 39.1335 3
11 5 0 407.291 66.9587 1
-12 -5 0 -0.2091 20.3431 3
12 -5 0 8.21173 46.2747 2
12 5 0 -46.407 63.1343 1
-13 -5 0 85.239 26.498 3
13 -5 0 230.966 65.4695 2
13 5 0 121.743 73.0873 1
-14 -5 0 130.992 29.7661 3
14 -5 0 214.476 79.2223 2
15 -5 0 725.803 106.074 2
-15 -5 0 492.191 52.8188 3
-16 -5 0 230.681 38.2623 3
0 -6 0 2384.05 87.1462 3
0 6 0 2438.02 95.3765 2
0 6 0 2449.13 90.1057 1
-1 -6 0 158.102 22.8199 3
-1 6 0 212.913 33.0148 2
-1 6 0 204.189 27.5947 1
1 6 0 185.727 31.2504 1
1 6 0 176.778 29.167 2
-2 -6 0 1391.13 59.3249 3
2 6 0 1270.74 69.4492 1
-2 6 0 1279.85 55.6407 1
2 6 0 1351.28 67.1205 2
-2 6 0 1308.96 67.5654 2
-3 -6 0 24.3178 16.6495 3
3 6 0 24.5965 22.1653 2
-3 6 0 28.862 17.2601 1
3 6 0 20.1703 24.0102 1
-3 6 0 -5.0515 23.0821 2
4 -6 0 685.231 45.5541 2
-4 6 0 543.358 53.1128 2
4 6 0 662.691 61.6115 1
4 6 0 664.471 54.0953 2
-5 -6 0 112.206 23.126 3
5 -6 0 67.9764 24.544 2
5 6 0 93.1946 26.0407 2
-5 6 0 82.2781 27.6291 2
6 -6 0 2370.74 94.2883 2
-6 -6 0 2241.11 83.1726 3
-6 6 0 2291.18 96.7976 2
6 6 0 2153.36 107.082 1
7 -6 0 150.084 31.8547 2
-7 -6 0 181.293 29.1779 3
7 6 0 172.988 45.7605 1
-7 6 0 114.081 34.6958 2
8 -6 0 393.001 48.5291 2
-8 -6 0 311.163 36.5556 3
8 6 0 208.839 51.1267 1
-8 6 0 267 43.4985 2
9 -6 0 -51.936 34.1064 2
-9 -6 0 -6.6154 18.2467 3
9 6 0 6.39026 51.2307 1
-9 6 0 22.191 35.9478 2
-10 -6 0 62.9991 23.4001 3
10 -6 0 37.5716 45.124 2
10 6 0 88.8421 59.9415 1
11 -6 0 47.1333 52.3501 2
-11 -6 0 -27.419 20.4025 3
11 6 0 -42.45 65.3544 1
-12 -6 0 992.678 61.8461 3
12 -6 0 1059.94 113.384 2
12 6 0 790.717 113.227 1
13 -6 0 -111.77 66.9425 2
-13 -6 0 -19.97 27.5759 3
-14 -6 0 213.111 35.9356 3
14 -6 0 307.126 92.9695 2
0 -7 0 -28.64 18.029 3
0 7 0 -31.887 29.0766 2
0 7 0 36.0376 29.8141 1
1 -7 0 213.679 34.0017 3
-1 -7 0 214.79 31.3351 3
1 7 0 438.124 54.6289 2
1 7 0 298.794 41.8402 1
-1 7 0 252.04 38.7226 1
-1 7 0 281.975 42.8918 2
-2 -7 0 159.142 32.3127 3
-2 7 0 188.931 39.462 2
2 7 0 187.827 38.9443 2
-2 7 0 195.953 34.0458 1
2 7 0 223.202 42.6619 1
-3 -7 0 1076.87 59.5898 3
-3 7 0 1101.86 55.0584 1
-3 7 0 1012.86 75.4885 2
3 7 0 973.073 80.4986 1
3 7 0 966.628 88.1633 2
-4 -7 0 185.941 30.4953 3
-4 7 0 153.264 42.951 2
4 7 0 122.971 44.1319 1
4 7 0 162.927 37.7092 2
-5 -7 0 213.376 29.6857 3
-5 7 0 325.273 51.6404 2
5 7 0 337.929 57.2566 1
5 7 0 259.876 47.7122 2
-6 -7 0 5.38231 20.4104 3
6 -7 0 -5.82 28.8901 2
6 7 0 -18.662 36.1194 2
-6 7 0 -11.142 38.4273 2
6 7 0 7.93708 44.9786 1
7 -7 0 238.984 44.4121 2
-7 -7 0 227.582 33.7353 3
7 7 0 201.335 63.869 1
7 7 0 326.331 49.571 2
-7 7 0 286.722 52.2216 2
8 -7 0 39.5102 41.8522 2
-8 -7 0 27.0135 23.3721 3
8 7 0 -88.005 58.8837 1
8 7 0 -6.2587 42.9797 2
-8 7 0 38.2266 44.9618 2
9 -7 0 911.668 88.6546 2
-9 -7 0 970.307 63.514 3
-9 7 0 974.035 94.217 2
9 7 0 981.205 105.787 1
-10 -7 0 45.8315 28.6805 3
10 -7 0 49.7159 53.0312 2
10 7 0 253.639 94.4255 1
11 -7 0 457.513 76.8195 2
-11 -7 0 297.365 44.4182 3
12 -7 0 163.606 82.5902 2
-12 -7 0 -88.774 35.4629 3
0 -8 0 975.661 67.2265 3
0 8 0 928.466 86.2707 1
0 8 0 961.793 88.3452 2
-1 -8 0 340.492 46.7049 3
-1 8 0 397.096 62.4581 2
1 8 0 428.281 59.8088 1
-1 8 0 375.343 55.639 1
1 8 0 320.937 59.2453 2
-2 -8 0 100.194 30.0415 3
2 8 0 65.2646 47.3468 2
-2 8 0 144.726 54.0375 2
2 8 0 142.024 52.5361 1
-2 8 0 115.142 41.0607 1
-3 -8 0 -10.755 28.2078 3
3 8 0 21.2635 55.4216 1
3 8 0 65.4875 49.0143 2
-3 8 0 48.845 47.8604 2
-4 -8 0 66.329 34.4793 3
4 8 0 144.59 53.8846 2
4 8 0 52.1157 60.6139 1
-4 8 0 177.414 56.5354 2
-5 -8 0 548.43 55.8273 3
5 8 0 429.514 66.9149 2
5 8 0 500.812 80.9745 1
-5 8 0 505.979 83.4977 2
-6 -8 0 592.604 60.2774 3
6 8 0 634.872 76.4623 2
-6 8 0 654.853 79.7629 2
6 8 0 731.675 92.2901 1
-7 -8 0 602.022 61.017 3
-7 8 0 558.535 76.9396 2
7 8 0 561.387 80.9436 2
7 8 0 506.369 97.5066 1
-8 -8 0 167.127 42.1881 3
8 8 0 55.6549 97.9724 1
-8 8 0 124.878 67.6484 2
8 8 0 38.6894 75.4776 2
-9 -8 0 37.7205 39.7915 3
9 -8 0 69.8853 64.9476 2
9 8 0 121.867 87.7637 2
-9 8 0 -151.36 73.7403 2
-10 -8 0 49.2378 37.5681 3
0 9 0 -15.97 68.4173 2
-1 -9 0 19.0405 38.7795 3
1 9 0 -12.993 72.5722 1
-1 9 0 36.2791 74.1396 2
1 9 0 -20.794 71.2354 2
-2 -9 0 768.185 74.9833 3
2 9 0 731.249 99.2322 1
-2 9 0 845.361 93.6423 2
2 9 0 696.739 97.9337 2
-3 -9 0 43.6407 39.8661 3
-3 9 0 129.634 77.3795 2
3 9 0 91.71 84.4626 1
3 9 0 133.798 84.7608 2
-4 -9 0 722.645 74.2967 3
-4 9 0 831.558 103.298 2
4 9 0 776.289 103.325 2
4 9 0 772.195 113.827 1
-5 -9 0 14.9501 40.1282 3
5 9 0 38.1559 104.61 1
5 9 0 10.1125 92.5835 2
-6 -9 0 63.4549 45.7558 3
19 0 -1 917.196 180.405 1
18 0 -1 -97.406 106.054 1
17 0 -1 476.257 99.214 1
17 0 -1 309.027 84.696 2
16 0 -1 -72.071 51.788 2
16 0 -1 17.8362 61.4832 1
15 0 -1 221.269 51.7822 2
15 0 -1 185.412 53.7471 1
14 0 -1 -30.825 36.9305 2
14 0 -1 -0.5551 40.8471 1
13 0 -1 2225.97 112.013 1
13 0 -1 2200.24 103.869 2
-13 0 1 2260.74 92.7276 1
12 0 -1 -24.165 27.1777 1
12 0 -1 2.46592 27.226 2
-12 0 1 -23.917 19.3753 1
11 0 -1 940.363 66.5425 1
11 0 -1 966.064 58.2796 2
-11 0 1 937.883 52.7046 1
10 0 -1 9.49847 18.8797 1
-10 0 1 29.2131 16.0884 1
-9 0 1 1308.81 56.1965 1
9 0 -1 1219.35 62.6243 1
8 0 -1 -28.057 14.1847 1
-8 0 1 5.82355 11.4653 1
-7 0 1 4434.15 128.017 1
7 0 -1 4490.76 134.888 1
-6 0 1 2.56143 8.10353 1
6 0 -1 3.323 10.8115 1
-5 0 1 1714.75 58.2367 1
5 0 -1 1733.06 60.8031 1
-4 0 1 7.11509 6.63669 1
4 0 -1 -3.6864 6.01371 1
3 0 -1 793.251 30.9574 1
-3 0 1 766.011 29.6918 1
-2 0 1 -0.8265 3.57329 1
2 0 -1 2.74501 3.64954 1
2 0 1 7.78271 4.0974 2
3 0 1 655.839 27.0702 2
3 0 1 616.079 24.2017 1
4 0 1 -4.701 5.06216 1
4 0 1 9.33949 6.33049 2
-5 0 -1 5248.44 139.111 1
5 0 1 5229.45 144.944 2
5 0 1 5288.96 141.638 1
6 0 1 -8.5956 9.41505 1
6 0 1 14.424 10.7904 2
-6 0 -1 0.53332 6.94235 1
7 0 1 4085.51 122.748 1
7 0 1 4111.75 125.644 2
8 0 1 26.8046 13.4443 2
8 0 1 -8.4924 13.5595 1
9 0 1 31.5498 19.1142 1
9 0 1 16.2354 13.6849 2
10 0 1 -0.1675 17.1851 2
10 0 1 -23.274 20.2052 1
11 0 1 1511.11 77.1924 2
11 0 1 1461.18 77.5942 1
12 0 1 -20.465 23.1536 2
12 0 1 46.9524 29.0441 1
13 0 1 1274.89 84.7636 1
13 0 1 1252.47 86.0781 2
14 0 1 -5.1831 40.8456 2
14 0 1 27.5412 41.0247 1
15 0 1 25.1306 47.5648 2
15 0 1 109.222 54.7588 1
16 0 1 82.868 64.2198 1
16 0 1 -27.329 56.8276 2
17 0 1 571.884 103.642 1
17 0 1 456.324 103.618 2
18 0 1 31.5213 115.046 1
18 -1 -1 24.5946 105.521 1
18 1 -1 297.671 115.538 1
17 -1 -1 180.002 80.4352 1
17 -1 -1 74.566 75.1999 2
17 1 -1 94.2977 74.9255 2
17 1 -1 142.572 87.6043 1
16 -1 -1 556.372 82.4421 2
16 -1 -1 631.064 86.6409 1
16 1 -1 639.231 89.1659 1
16 1 -1 840.944 108.026 2
15 -1 -1 338.075 61.849 1
15 -1 -1 331.154 61.3822 2
15 1 -1 251.159 56.9977 2
15 1 -1 380.757 69.9776 1
14 -1 -1 585.446 67.4437 1
14 -1 -1 591.505 72.7874 2
14 1 -1 643.446 82.297 1
13 -1 -1 67.0086 36.0468 1
-13 -1 1 35.8363 24.5347 1
13 -1 -1 59.9657 32.5195 2
13 1 -1 33.4513 35.3522 1
-13 1 1 65.5509 25.4199 1
12 -1 -1 250.359 42.4902 1
-12 -1 1 318.063 42.2478 1
12 -1 -1 251.891 59.6402 2
12 1 -1 270.701 44.4507 1
-12 1 1 283.513 36.7784 1
-11 -1 1 175.249 28.1508 1
11 -1 -1 282.694 38.2045 2
11 -1 -1 283.529 39.1619 1
-11 1 1 262.402 32.2099 1
11 1 -1 320.455 45.4385 1
10 -1 -1 1632.49 75.7667 2
10 -1 -1 1739.75 78.7761 1
-10 -1 1 1772.11 73.3137 1
-10 1 1 1709.05 66.9867 1
10 1 -1 1731.58 84.0443 1
9 -1 -1 449.316 39.0874 1
-9 -1 1 476.343 36.0329 1
9 -1 -1 445.179 35.5867 2
9 1 -1 450.203 43.3797 1
-9 1 1 382.807 29.8993 1
-8 -1 1 1360.79 60.3387 1
8 -1 -1 1377.74 60.5638 2
8 -1 -1 1436.41 61.151 1
-8 1 1 1424.99 53.8904 1
8 1 -1 1463.85 68.7458 1
7 -1 -1 50.7701 13.6255 2
-7 -1 1 59.9454 12.6913 1
7 -1 -1 56.7339 14.3662 1
7 1 -1 61.9711 18.3144 1
-7 1 1 68.5253 13.6422 1
6 -1 -1 86.4779 14.2142 1
6 -1 -1 68.2601 13.0099 2
-6 -1 1 63.8015 12.9803 1
6 1 -1 77.7616 15.8814 1
-6 1 1 76.5492 13.1125 1
5 -1 -1 3.48175 8.71326 1
5 -1 -1 11.7191 6.84818 2
-5 -1 1 7.68824 6.33865 1
-5 1 1 13.2542 6.84337 1
5 1 -1 11.8926 11.1744 1
-4 -1 1 3744.71 105.612 1
4 -1 -1 3645.58 102.53 2
4 -1 -1 3680.21 101.445 1
4 1 -1 3813.38 108.831 1
-4 1 1 3720.35 99.8524 1
3 -1 -1 898.569 31.8818 2
3 -1 -1 862.594 30.9447 1
-3 -1 1 913.122 35.0831 1
-3 1 1 882.279 30.852 1
3 1 -1 951.435 37.1662 1
-2 -1 1 1400.54 44.7788 1
2 -1 -1 1390.71 40.5663 2
2 1 -1 1400.89 45.4657 1
-2 1 1 1400.4 40.0325 2
-2 1 1 1365.3 40.3392 1
1 -1 -1 7.13472 2.99817 2
-1 -1 1 6.35737 3.9432 1
-1 -1 1 6.01793 2.21603 3
1 1 -1 9.31783 2.72264 3
1 1 -1 4.18746 4.32938 1
-1 1 1 8.03001 3.77077 3
-1 1 1 11.2553 3.31049 2
0 -1 1 584.105 18.0632 3
0 -1 1 577.197 21.6576 2
0 -1 1 585.709 19.2246 1
0 -1 -1 581.969 17.8809 3
0 1 -1 611.456 20.0365 1
0 1 -1 618.766 17.7955 3
0 1 -1 590.093 22.0083 2
0 1 1 616.634 17.615 3
1 -1 1 998.633 34.0537 2
-1 -1 -1 1039.09 28.0827 3
1 1 1 1069.61 27.878 3
-1 1 -1 1053.57 29.5935 3
-1 1 -1 1053.96 34.3676 2
2 -1 1 2085.88 62.9683 2
2 1 1 2165.91 61.7642 1
-2 1 -1 2169.31 63.2137 2
3 -1 1 280.085 12.8043 1
3 -1 1 293.713 19.2328 2
-3 1 -1 282.968 18.5898 2
3 1 1 280.552 18.1314 1
4 -1 1 1336.81 49.5832 2
4 -1 1 1266.43 40.0965 1
-4 1 -1 1317.38 48.302 2
4 1 1 1280.16 47.4266 1
5 -1 1 141.96 17.6964 2
5 -1 1 168.977 15.1634 1
5 1 1 177.673 18.8018 1
6 -1 1 160.4 19.8301 2
6 -1 1 145.559 17.9408 1
6 1 1 128.267 19.7082 1
7 -1 1 227.46 25.5734 2
7 -1 1 245.782 23.5297 1
7 1 1 215.331 27.1095 1
8 -1 1 2817.57 100.329 2
8 -1 1 2816.26 93.22 1
8 1 1 2804.49 100.438 1
9 -1 1 429.406 37.7578 2
9 -1 1 401.104 37.3538 1
9 1 1 465.421 43.5021 1
10 -1 1 1231.1 62.9645 1
10 -1 1 1297.28 66.8284 2
10 1 1 1303.97 69.8993 1
11 -1 1 67.3054 28.365 2
11 -1 1 7.04183 22.7888 1
11 1 1 7.53527 25.1888 1
12 -1 1 53.7512 29.3076 1
12 -1 1 -5.3374 26.3152 2
12 1 1 43.9122 32.2122 1
12 1 1 40.6819 27.4203 2
13 -1 1 70.6261 39.3796 1
13 -1 1 90.2293 36.6302 2
13 1 1 147.367 35.0702 2
13 1 1 125.348 41.6979 1
14 -1 1 950.356 85.1475 2
14 -1 1 936.311 84.8178 1
14 1 1 840.323 87.5251 2
14 1 1 985.08 89.2153 1
15 -1 1 296.985 56.0796 1
15 -1 1 160.894 54.0912 2
15 1 1 171.313 57.9933 2
15 1 1 151.001 59.7388 1
16 -1 1 663.373 82.7485 1
16 -1 1 790.753 98.1916 2
16 1 1 886.983 121.566 1
16 1 1 739.025 92.8876 2
17 -1 1 64.4984 82.3508 1
17 -1 1 -17.259 81.4571 2
17 1 1 193.145 94.1353 1
18 -1 1 47.4676 111.62 1
18 1 1 -214.52 117.781 1
18 -2 -1 317.094 123.141 1
17 -2 -1 -70.143 81.3509 1
17 -2 -1 184.696 78.0737 2
17 2 -1 63.2825 94.3436 1
16 -2 -1 163.035 66.8028 1
16 -2 -1 14.9829 65.6013 2
16 2 -1 0.09023 76.3591 1
15 -2 -1 -18.15 49.7921 1
15 -2 -1 114.713 56.9031 2
15 2 -1 51.2534 65.2215 1
14 -2 -1 647.906 79.1053 2
14 -2 -1 642.825 79.787 1
14 2 -1 493.234 69.7275 1
13 -2 -1 506.66 67.6339 2
13 -2 -1 570.419 70.2891 1
13 2 -1 654.564 77.9062 1
-12 -2 1 1776.33 85.8907 1
12 -2 -1 1797.94 88.0704 1
12 2 -1 1792.07 100.889 1
-12 2 1 1651.7 68.9183 1
11 -2 -1 127.51 26.5614 1
11 -2 -1 117.886 28.5434 2
-11 -2 1 148.859 30.852 1
11 2 -1 174.439 51.1095 1
-11 2 1 106.433 19.6508 1
-10 -2 1 61.2309 21.7403 1
10 -2 -1 40.1953 22.8099 1
10 -2 -1 65.3801 23.19 2
-10 2 1 54.6481 16.1272 1
10 2 -1 17.3823 21.6013 1
-9 -2 1 24.8105 15.5324 1
9 -2 -1 1.52149 15.0436 2
9 -2 -1 1.31325 17.5107 1
-9 2 1 7.79622 12.0412 1
9 2 -1 -15.108 20.6379 1
8 -2 -1 2390.56 80.9442 1
8 -2 -1 2200.69 85.1282 2
-8 -2 1 2368.97 86.4284 1
-8 2 1 2349.35 72.6547 1
8 2 -1 2262.93 94.6356 1
-7 -2 1 1501.38 63.8816 1
7 -2 -1 1607.91 64.7683 2
7 -2 -1 1621.18 58.3674 1
-7 2 1 1601.58 53.9839 1
7 2 -1 1577.36 71.2793 1
6 -2 -1 3065.83 91.4553 1
-6 -2 1 3291.56 102.716 1
6 -2 -1 3166.84 100.753 2
-6 2 1 3187.47 88.9419 1
6 2 -1 3162.85 107.073 1
-5 -2 1 862.709 41.5511 1
5 -2 -1 844.38 38.6553 2
5 2 -1 867.947 44.7342 1
-5 2 1 837.277 31.8135 1
-5 2 1 911.229 38.3156 2
-4 -2 1 1129.06 45.3154 1
4 -2 -1 1084.76 41.4681 2
-4 -2 1 1132.2 34.9617 3
-4 2 1 1085.61 41.4138 2
-4 2 1 1075.8 36.2131 1
4 2 -1 1024.87 46.8696 1
-3 -2 1 166.624 16.8914 1
3 -2 -1 134.977 13.44 2
-3 -2 1 174.068 11.029 3
3 2 -1 161.868 19.0679 1
-3 2 1 147.504 11.7724 1
-3 2 1 152.782 14.3103 2
-2 -2 1 3739.59 103.92 1
2 -2 -1 3716.72 99.4088 2
-2 -2 1 3789.56 96.1451 3
-2 2 1 3719.1 100.107 2
2 2 -1 3792.13 106.28 1
2 2 -1 3894.18 95.0927 3
-2 2 1 3709.36 97.7821 3
-1 -2 1 2020.19 58.91 1
1 -2 -1 1991.68 56.2282 2
1 -2 -1 1930.2 55.9819 3
-1 -2 1 1997.94 54.8025 3
1 2 -1 1995.86 60.8446 1
1 2 -1 1991.81 60.9707 2
-1 2 1 2014.85 55.04 3
-1 2 1 1986.76 57.0986 2
1 2 -1 2096.91 53.9332 3
0 -2 1 3680.94 94.588 1
0 -2 1 3634.37 94.329 3
0 -2 -1 3661.5 94.1893 3
0 -2 1 3640.88 99.7959 2
0 2 1 3696.27 95.864 2
0 2 1 3703.92 92.7986 3
0 2 -1 3816.45 93.2176 3
0 2 -1 3604.1 100.515 2
0 2 -1 3592.92 96.1373 1
1 -2 1 1829.15 52.2987 3
1 -2 1 1798.42 57.2614 2
-1 -2 -1 1794.33 50.261 3
-1 2 -1 1848.8 49.3472 1
1 2 1 1835.07 49.234 3
-1 2 -1 1888.1 58.8007 2
-1 2 -1 1778.26 50.8216 3
-2 -2 -1 295.142 13.8976 3
2 -2 1 284.436 19.2265 2
-2 2 -1 277.388 20.2645 2
2 2 1 297.38 19.5614 1
-2 2 -1 298.199 16.5434 3
2 2 1 296.088 13.4095 3
-3 -2 -1 42.4539 6.47423 3
3 -2 1 49.9015 9.69075 2
3 2 1 39.1835 10.4459 1
-3 2 -1 63.1016 11.9564 2
4 -2 1 1315.05 51.9605 2
4 2 1 1342.31 52.2978 1
-4 2 -1 1297.31 51.2613 2
5 -2 1 621.475 35.3963 2
5 2 1 697.902 37.5688 1
-5 2 -1 582.657 34.7732 2
6 -2 1 2552.27 73.853 1
6 -2 1 2551.37 89.3906 2
-6 2 -1 2607.44 87.865 2
6 2 1 2631.05 90.3615 1
7 -2 1 616.017 31.0717 1
7 -2 1 558.632 39.7624 2
7 2 1 532.647 40.1672 1
8 -2 1 467.414 39.6419 2
8 -2 1 472.856 31.8747 1
8 2 1 483.803 43.4562 1
9 -2 1 17.619 16.531 1
9 -2 1 11.8857 19.1542 2
9 2 1 46.3923 22.8045 1
10 -2 1 835.9 51.3289 1
10 -2 1 800.24 58.3072 2
10 2 1 830.728 60.9209 1
11 -2 1 571.521 56.6708 2
11 -2 1 655.614 52.2322 1
12 -2 1 1245.4 81.3659 2
12 -2 1 1413.05 74.4822 1
12 2 1 1187.66 86.3945 1
13 -2 1 72.1189 36.7004 1
13 -2 1 73.2796 39.8771 2
13 2 1 64.4714 41.3936 1
14 -2 1 355.906 65.4112 2
14 -2 1 423.213 57.5761 1
14 2 1 374.184 66.5459 1
14 2 1 357.696 57.8291 2
15 -2 1 -11.512 52.0793 1
15 -2 1 46.033 56.7442 2
15 2 1 41.392 54.0979 2
15 2 1 -78.044 55.8713 1
16 -2 1 201.939 77.4195 2
16 2 1 52.8209 70.7572 1
16 2 1 93.1916 73.5639 2
17 -2 1 117.449 87.0216 1
17 2 1 346.281 98.8903 1
17 -3 -1 462.297 101.336 2
16 -3 -1 28.9689 66.4213 1
16 -3 -1 8.58437 69.8036 2
16 3 -1 36.0893 80.5191 1
15 -3 -1 729.511 86.9945 2
15 -3 -1 628.022 69.0005 1
15 3 -1 745.92 101.035 1
13 -3 -1 -60.494 33.1555 1
13 -3 -1 -53.958 36.3169 2
13 3 -1 -86.707 41.7771 1
12 -3 -1 49.0791 28.5128 1
12 -3 -1 8.30404 28.7415 2
12 3 -1 -10.334 37.6352 1
11 -3 -1 688.652 49.5729 1
11 -3 -1 791.147 60.8718 2
11 3 -1 809.97 75.1504 1
-11 3 1 694.985 37.574 1
10 -3 -1 -19.575 23.4421 2
10 -3 -1 6.52627 19.8092 1
10 3 -1 34.3772 37.0672 1
-10 3 1 40.2745 12.7698 1
9 -3 -1 1550.43 72.8106 2
-9 -3 1 1735.52 76.3653 1
-9 3 1 1659.45 54.7753 1
9 3 -1 1596.99 86.117 1
-8 -3 1 26.3923 18.4552 1
8 -3 -1 19.3246 15.0443 2
8 3 -1 36.8119 22.3779 1
-8 3 1 13.4116 8.88005 1
-7 -3 1 16.2381 7.61642 3
7 -3 -1 -6.9112 12.7575 2
-7 -3 1 1.19937 14.3118 1
-7 3 1 8.00759 9.17872 1
7 3 -1 22.9847 18.293 1
-6 -3 1 62.6989 10.3187 3
-6 -3 1 46.7782 16.8516 1
6 -3 -1 60.5553 13.8471 2
-6 3 1 75.0458 10.9476 1
-6 3 1 49.4089 14.355 2
6 3 -1 97.0378 22.6406 1
-5 -3 1 2099.87 63.7208 3
5 -3 -1 2105.7 72.3567 2
-5 -3 1 2126 76.472 1
-5 3 1 2161.26 72.962 2
5 3 -1 2083.46 81.0468 1
-5 3 1 2096.01 60.892 1
4 -3 -1 8.0207 8.90445 2
-4 -3 1 18.576 6.27516 3
-4 -3 1 7.40428 9.61992 1
-4 3 1 11.7073 12.9393 3
-4 3 1 14.351 6.65919 1
4 3 -1 0.66268 12.6226 1
-4 3 1 -8.0836 8.73941 2
-3 -3 1 4724.76 132.897 1
3 -3 -1 4703.64 129.386 2
-3 -3 1 4648.54 123.399 3
-3 3 1 4657.61 125.598 3
3 3 -1 4881.96 138.803 1
-3 3 1 4750.87 129.841 2
-2 -3 1 2.88036 5.13963 3
-2 -3 1 -2.9591 6.95653 1
2 -3 -1 4.57676 6.48353 2
-2 3 1 3.60081 9.38066 2
2 3 -1 1.58683 9.8042 1
2 3 -1 16.7015 7.9408 3
-2 3 1 -10.773 8.32725 3
-1 -3 1 46.873 8.13464 3
1 -3 -1 48.1506 8.70387 3
1 3 -1 76.8135 13.0845 1
1 3 -1 74.8396 9.90927 3
-1 3 1 56.9815 10.2676 3
-1 3 1 64.5369 11.25 2
1 3 -1 76.2527 13.6785 2
0 -3 -1 1.31119 5.49126 3
0 -3 1 3.00413 7.19307 3
0 3 1 16.4828 7.63537 3
0 3 -1 5.82807 9.59149 2
0 3 -1 13.7609 8.43729 1
0 3 1 0.21296 6.7327 2
0 3 -1 -1.5243 7.49293 3
1 -3 1 2309.3 68.6268 3
-1 -3 -1 2256.75 66.574 3
1 -3 1 2343.75 73.9403 2
-1 3 -1 2340.33 75.8142 2
1 3 1 2381.4 72.4135 1
-1 3 -1 2318.85 66.1323 3
1 3 1 2270.35 64.1836 3
-1 3 -1 2376.28 66.2322 1
-2 -3 -1 42.9876 8.2337 3
2 -3 1 16.8175 9.0993 2
-2 3 -1 34.2959 10.0279 3
2 3 1 32.5244 11.7337 1
2 3 1 50.4505 9.61714 3
-2 3 -1 11.5062 9.60105 2
-3 -3 -1 6362.17 161.534 3
3 -3 1 6507.09 174.047 2
-3 3 -1 6159.69 163.463 3
3 3 1 6306.4 174.674 1
-3 3 -1 6449.62 175.733 2
4 -3 1 92.0764 17.5814 2
-4 -3 -1 97.3154 10.9443 3
-4 3 -1 54.1816 13.3449 3
-4 3 -1 118.129 19.3633 2
4 3 1 71.3409 16.4803 1
-5 -3 -1 684.875 28.6464 3
5 -3 1 713.022 40.4354 2
-5 3 -1 678.764 39.9801 2
5 3 1 730.012 41.5782 1
6 -3 1 72.4416 17.6208 2
-6 -3 -1 59.131 9.98204 3
6 3 1 49.3661 16.9303 1
-6 3 -1 49.2185 15.9059 2
7 -3 1 1259.61 61.9926 2
-7 -3 -1 1301.77 45.6254 3
-7 3 -1 1386.05 62.4912 2
7 3 1 1256.2 65.9285 1
8 -3 1 63.3779 22.7045 2
-8 3 -1 40.5142 17.7665 2
8 3 1 66.0692 26.4166 1
9 -3 1 2678.86 107.428 2
9 3 1 2817.55 113.746 1
10 -3 1 37.5136 25.5196 2
10 -3 1 -22.655 16.7887 1
10 3 1 3.16507 25.8502 1
11 -3 1 276.055 37.2714 1
11 -3 1 143.857 61.302 2
11 3 1 324.211 48.7768 1
12 -3 1 21.5712 35.4644 2
12 -3 1 45.0717 26.3733 1
12 3 1 3.33272 34.8062 1
13 -3 1 430.638 56.1663 1
13 -3 1 390.313 61.3335 2
13 3 1 482.848 73.9246 1
14 -3 1 -4.4614 39.4822 1
14 -3 1 62.3848 55.1028 2
14 3 1 97.7505 63.0952 1
15 -3 1 1007.71 120.334 2
15 -3 1 942.366 90.4635 1
15 3 1 1078.13 130.941 1
16 -3 1 -77.132 72.4207 2
16 -3 1 -150.85 62.3791 1
16 3 1 36.8116 88.6817 1
-17 -4 1 53.808 32.2828 3
-16 -4 1 61.491 25.4791 3
16 -4 -1 -153.69 80.7132 2
-15 -4 1 13.6219 17.7513 3
15 -4 -1 56.1414 71.2404 2
15 4 -1 84.8034 76.881 1
-14 -4 1 764.687 48.8717 3
14 -4 -1 940.205 108.027 2
14 4 -1 930.511 107.247 1
13 -4 -1 1.43391 47.5276 2
-13 -4 1 93.8658 21.4329 3
13 4 -1 82.2891 57.479 1
12 -4 -1 1348.75 89.2949 2
-12 -4 1 1208.28 55.6842 3
12 4 -1 1216.4 105.067 1
11 -4 -1 6.53139 29.5441 2
-11 -4 1 67.6079 17.6937 3
11 4 -1 -6.9215 35.3974 1
10 -4 -1 89.9676 27.9361 2
-10 -4 1 75.611 18.7336 3
10 4 -1 90.6139 39.396 1
9 4 -1 82.2353 31.2403 1
-8 -4 1 1340.45 52.6279 3
8 -4 -1 1349.78 65.6939 2
8 4 -1 1255.01 77.4184 1
-7 -4 1 242.96 23.7064 3
7 -4 -1 224.702 30.177 2
-7 4 1 300.787 33.8367 2
7 4 -1 227.465 35.674 1
6 -4 -1 3001.74 99.7914 2
-6 -4 1 2738.31 93.8682 3
-6 4 1 3012.26 99.8281 2
6 4 -1 2958.74 111.373 1
-5 -4 1 111.703 16.0229 3
5 -4 -1 113.422 18.8066 2
-5 4 1 100.902 19.0742 2
5 4 -1 104.529 23.377 1
4 -4 -1 443.008 29.9042 2
-4 -4 1 442.935 25.1841 3
-4 4 1 449.451 32.7757 2
4 4 -1 467.817 39.377 1
3 -4 -1 101.147 16.2266 2
-3 -4 1 94.4092 14.4936 3
-3 4 1 82.3716 17.6338 2
3 4 -1 114.32 24.9091 1
-2 -4 1 1821.39 60.1245 3
2 -4 -1 1821.59 62.0391 2
2 4 -1 1815.52 68.799 2
2 4 -1 1831.13 70.3567 1
-2 4 1 1899.27 57.9766 1
-2 4 1 1841.98 65.7168 2
1 -4 -1 320.753 22.181 3
-1 -4 1 289.921 20.9439 3
1 4 -1 351.955 27.4356 2
-1 4 1 340.631 22.969 1
1 4 -1 293.39 27.4707 1
-1 4 1 303.748 24.7927 2
0 -4 -1 2368.82 74.2512 3
0 -4 1 2378.91 74.6388 3
0 4 -1 2446.48 77.1074 1
0 4 -1 2410.1 83.8114 2
0 4 1 2447.3 76.7668 1
0 4 1 2402.76 78.6009 2
1 -4 1 265.43 21.4579 3
-1 -4 -1 315.59 21.3951 3
1 4 1 252.698 25.6617 1
-1 4 -1 344.793 30.4007 2
1 4 1 302.038 25.753 2
-1 4 -1 312.996 23.0323 1
2 -4 1 425.352 26.5956 3
2 -4 1 449.735 29.8791 2
-2 -4 -1 435.417 24.4303 3
-2 4 -1 442.777 23.1093 1
-2 4 -1 449.633 35.3674 2
2 4 1 493.204 32.6241 1
-3 -4 -1 0.93305 7.72959 3
3 -4 1 13.5017 11.9252 2
3 4 1 18.2232 13.2541 1
-3 4 -1 16.4746 15.489 2
4 -4 1 1421.41 61.1269 2
-4 -4 -1 1435.89 50.3384 3
-4 4 -1 1432.92 62.9991 2
4 4 1 1434.26 63.4971 1
5 -4 1 452.435 34.9467 2
-5 -4 -1 452.534 25.6291 3
5 4 1 387.297 36.8013 1
-5 4 -1 416.17 38.3688 2
6 -4 1 2148.66 84.356 2
-6 -4 -1 2046.33 70.1719 3
-6 4 -1 2163.58 84.2914 2
6 4 1 2131.96 89.402 1
-7 -4 -1 267.225 23.6192 3
7 -4 1 236.152 32.567 2
-7 4 -1 218.403 31.8161 2
7 4 1 231.703 36.3392 1
8 -4 1 205.21 32.7676 2
-8 -4 -1 160.862 20.5354 3
-8 4 -1 172.453 29.6423 2
8 4 1 143.846 44.228 1
9 -4 1 41.1984 26.2752 2
-9 -4 -1 50.3136 15.7239 3
-9 4 -1 -17.32 20.8623 2
9 4 1 22.6741 27.0162 1
-10 -4 -1 595.778 34.9338 3
10 -4 1 579.979 58.7417 2
10 4 1 468.58 56.7427 1
-11 -4 -1 126.302 21.4844 3
11 -4 1 121.273 41.0513 2
11 4 1 110.098 39.4474 1
12 -4 1 1409.73 97.6489 2
-12 -4 -1 1329.29 58.8589 3
12 4 1 1508.22 108.78 1
13 -4 1 46.9662 49.5558 2
-13 -4 -1 120.043 25.2636 3
13 4 1 170.797 61.3481 1
-14 -4 -1 157.228 30.9624 3
14 -4 1 99.6351 63.68 2
14 4 1 331.393 82.7548 1
-15 -4 -1 27.6218 25.1048 3
15 -4 1 -67.951 69.4389 2
-16 -4 -1 297.424 41.6982 3
16 -4 1 151.458 97.5865 2
-17 -4 -1 104.938 30.1938 3
-16 -5 1 442.88 51.3739 3
16 -5 -1 189.233 107.179 2
15 -5 -1 48.8693 85.1512 2
14 -5 -1 146.388 70.5183 2
-14 -5 1 175.23 30.5003 3
-13 -5 1 -6.439 19.1446 3
13 -5 -1 121.14 59.2695 2
13 5 -1 -15.888 66.7976 1
-12 -5 1 108.574 23.5212 3
12 -5 -1 245.765 52.1034 2
12 5 -1 156.638 70.3921 1
11 -5 -1 92.5797 43.7805 2
-11 -5 1 131.856 23.6272 3
11 5 -1 145.222 55.5195 1
-10 -5 1 1221.05 56.3407 3
10 -5 -1 1079.96 74.765 2
10 5 -1 1041.8 94.9708 1
9 -5 -1 407.552 50.965 2
-9 -5 1 434.626 34.5871 3
9 5 -1 421.539 59.927 1
-8 -5 1 502.902 35.535 3
8 -5 -1 541.181 50.26 2
8 5 -1 582.659 66.8233 1
-8 5 1 605.028 48.5621 2
7 -5 -1 71.9775 21.2912 2
-7 -5 1 48.4079 16.1946 3
7 5 -1 46.537 35.6804 1
-7 5 1 45.7537 22.6863 2
6 -5 -1 135.666 23.7429 2
-6 -5 1 175.994 25.7654 3
-6 5 1 131.887 24.8906 2
6 5 -1 120.589 34.818 1
-5 -5 1 500.824 32.671 3
5 -5 -1 536.617 38.1497 2
5 5 -1 578.005 52.0304 1
-5 5 1 469.473 40.042 2
4 -5 -1 1529.61 61.4086 2
4 5 -1 1504.02 69.3568 2
4 5 -1 1523.23 73.2784 1
-4 5 1 1548.96 49.8637 1
-4 5 1 1590.12 65.9891 2
-3 -5 1 344.446 27.8479 3
3 -5 -1 318.003 27.4949 2
-3 5 1 382.35 37.1787 2
3 5 -1 281.685 33.4893 2
3 5 -1 263.81 36.3689 1
-3 5 1 309.571 24.8077 1
-2 -5 1 1049.88 53.5209 3
-2 5 1 1131.33 54.7824 2
-2 5 1 1179.83 47.1391 1
2 5 -1 1189.24 57.6456 2
2 5 -1 1199.46 58.4362 1
1 5 -1 52.7879 18.9789 2
1 5 -1 49.9944 18.2275 1
-1 5 1 53.267 18.4724 2
-1 5 1 38.2886 14.1927 1
0 -5 -1 157.771 28.4148 3
0 5 -1 168.325 26.5922 2
0 5 -1 196.821 25.1021 1
0 5 1 179.495 24.3812 1
0 5 1 152.421 24.673 2
1 5 1 166.75 24.507 1
-1 5 -1 81.1159 23.8374 2
-1 5 -1 120.799 20.3038 1
1 5 1 152.731 22.4106 2
-2 5 -1 1457.36 66.9424 2
-2 5 -1 1455.34 52.4459 1
2 5 1 1339.5 62.2488 1
2 5 1 1394.92 61.299 2
3 -5 1 1828.4 72.7547 2
3 5 1 1821.51 76.5408 1
3 5 1 1723.13 70.9453 2
-3 5 -1 1852.11 78.7735 2
4 -5 1 624.603 43.2845 2
-4 -5 -1 623.46 35.8906 3
4 5 1 682.575 50.1875 1
-4 5 -1 672.647 48.8056 2
-5 -5 -1 29.9464 16.4728 3
5 -5 1 27.8486 17.2461 2
5 5 1 37.4948 23.4129 1
-5 5 -1 77.5325 24.3749 2
-6 -5 -1 27.0647 15.7373 3
6 -5 1 -0.3995 19.1732 2
6 5 1 -5.3306 23.3561 1
-6 5 -1 -29.318 23.3212 2
7 -5 1 205.483 32.1082 2
-7 -5 -1 177.261 22.9964 3
7 5 1 211.693 39.5758 1
-7 5 -1 178.42 30.986 2
-8 -5 -1 1367.65 56.2666 3
8 -5 1 1318.26 74.9537 2
-8 5 -1 1278.73 71.6444 2
8 5 1 1309.87 85.7939 1
9 -5 1 484.383 60.3813 2
-9 -5 -1 461.738 34.9221 3
9 5 1 493.638 59.2029 1
-9 5 -1 446.641 57.4258 2
-10 -5 -1 603.459 41.1702 3
10 -5 1 574.704 69.9437 2
10 5 1 688.996 80.9671 1
-11 -5 -1 139.806 27.3483 3
11 -5 1 87.1457 47.6591 2
11 5 1 36.6872 51.4618 1
12 -5 1 -58.918 53.6343 2
-12 -5 -1 15.8236 18.5136 3
12 5 1 35.0145 58.9443 1
13 -5 1 157.023 64.6823 2
-13 -5 -1 154.893 29.6907 3
13 5 1 146.68 76.8447 1
-14 -5 -1 602.203 51.7468 3
14 -5 1 597.09 94.9102 2
-15 -5 -1 316.551 44.6738 3
15 -5 1 341.661 90.3856 2
-14 -6 1 22.4439 28.2017 3
14 -6 -1 238.69 86.6544 2
13 -6 -1 1052.81 126.332 2
-13 -6 1 1041.42 63.7949 3
-12 -6 1 99.3033 28.3317 3
12 -6 -1 153.433 58.0222 2
12 6 -1 9.88869 74.3748 1
11 -6 -1 264.671 59.5507 2
-11 -6 1 256.294 37.8585 3
11 6 -1 185.305 77.3282 1
-10 -6 1 -36.001 18.5008 3
10 -6 -1 -9.2221 42.1138 2
10 6 -1 58.4058 61.3681 1
9 -6 -1 131.968 38.2116 2
-9 -6 1 111.227 25.1212 3
9 6 -1 96.5931 54.9207 1
-8 -6 1 42.517 22.0875 3
8 -6 -1 97.9619 30.8693 2
-8 6 1 72.0295 33.0142 2
8 6 -1 52.8241 43.5244 1
7 -6 -1 2041.56 83.9414 2
-7 -6 1 1909.99 75.9727 3
-7 6 1 1735.98 84.9979 2
7 6 -1 1899.02 110.292 1
-6 -6 1 99.7022 20.9923 3
6 -6 -1 124.315 27.6792 2
-6 6 1 118.626 31.0081 2
6 6 -1 104.299 41.4397 1
6 6 -1 78.7393 28.3366 2
5 -6 -1 627.917 45.2965 2
-5 -6 1 710.571 43.7142 3
-5 6 1 642.997 54.4172 2
5 6 -1 587.431 68.2624 1
-4 -6 1 50.1895 18.3577 3
-4 6 1 63.5772 24.1625 2
4 6 -1 45.7135 30.075 1
4 6 -1 17.8963 22.1012 2
-3 -6 1 270.778 31.1036 3
-3 6 1 350.341 33.4132 1
3 6 -1 367.56 43.5474 2
3 6 -1 271.106 35.8738 1
-3 6 1 285.249 37.5086 2
-2 -6 1 273.276 31.6514 3
2 6 -1 306.236 41.2843 2
-2 6 1 284.563 34.4022 2
-2 6 1 284.852 33.2908 1
2 6 -1 283.667 38.5993 1
1 -6 -1 2241.37 84.3501 3
-1 6 1 2336.78 91.071 2
1 6 -1 2192.23 94.2599 2
1 6 -1 2236.73 90.6864 1
-1 6 1 2316.3 84.0493 1
0 -6 1 138.362 23.0351 3
0 -6 -1 147.202 22.7896 3
0 6 -1 106.501 27.3958 1
0 6 1 195.252 27.8911 2
0 6 1 118.353 25.8616 1
0 6 -1 131.679 28.0519 2
1 -6 1 1912.61 76.8783 3
-1 -6 -1 1855.53 73.7508 3
-1 6 -1 1968.18 75.2155 1
1 6 1 1997.88 82.4684 1
1 6 1 1964.56 81.5349 2
-1 6 -1 1911.45 86.4633 2
-2 -6 -1 -16.296 15.896 3
-2 6 -1 5.45841 19.5179 1
-2 6 -1 -16.252 21.9211 2
2 6 1 -3.6549 21.7215 1
2 6 1 0.78198 19.8441 2
-3 -6 -1 79.987 21.1044 3
3 6 1 103.439 28.4297 1
3 6 1 123.542 26.7031 2
-3 6 -1 98.7659 30.1929 2
4 -6 1 36.9323 20.4626 2
-4 -6 -1 11.4333 17.9439 3
4 6 1 16.183 23.6479 2
4 6 1 16.3425 29.2272 1
-4 6 -1 39.7162 27.5012 2
-5 -6 -1 2366.69 86.1564 3
5 -6 1 2448.68 96.478 2
-5 6 -1 2416.91 103.66 2
5 6 1 2409.06 96.6211 2
5 6 1 2303.13 108.485 1
6 -6 1 133.458 29.3254 2
-6 -6 -1 80.0513 18.178 3
-6 6 -1 126.432 35.4707 2
6 6 1 68.2585 37.2876 1
-7 -6 -1 993.899 53.2465 3
7 -6 1 1083.75 69.6682 2
7 6 1 982.112 80.624 1
-7 6 -1 1008.85 71.9555 2
-8 -6 -1 12.7647 18.2171 3
8 -6 1 -18.048 32.5376 2
-8 6 -1 27.5108 33.2752 2
8 6 1 19.4054 42.1913 1
9 -6 1 34.8538 41.3775 2
-9 -6 -1 11.8257 20.2117 3
9 6 1 10.5666 51.7929 1
-9 6 -1 47.0052 38.9178 2
10 -6 1 -6.1199 47.3672 2
-10 -6 -1 75.1541 25.374 3
10 6 1 53.3484 58.9421 1
-10 6 -1 40.4293 42.0547 2
11 -6 1 819.008 105.905 2
-11 -6 -1 753.32 54.3084 3
11 6 1 690.053 90.5384 1
12 -6 1 86.1019 65.2288 2
-12 -6 -1 16.7243 26.5774 3
12 6 1 -171.89 91.8664 1
13 -6 1 444.999 87.0688 2
-13 -6 -1 532.115 56.188 3
14 -6 1 158.415 91.3496 2
12 -7 -1 230.828 78.8677 2
11 -7 -1 196.547 63.719 2
-11 -7 1 100.972 33.6436 3
-10 -7 1 898.936 62.6509 3
10 -7 -1 821.242 91.6836 2
10 7 -1 680.642 97.1728 1
9 -7 -1 8.89416 44.4147 2
-9 -7 1 29.7273 28.9404 3
9 7 -1 24.7233 74.5993 1
-8 -7 1 692.368 54.739 3
8 7 -1 676.338 90.9042 1
8 7 -1 758.05 89.1579 2
7 -7 -1 -22.478 31.6781 2
-7 -7 1 3.93035 24.9827 3
7 7 -1 80.257 58.597 1
-7 7 1 27.4324 42.6228 2
7 7 -1 -10.217 40.594 2
-6 -7 1 69.8238 23.8928 3
6 7 -1 98.6061 51.3822 1
-6 7 1 53.0526 36.6109 2
6 7 -1 129.323 43.9026 2
-5 -7 1 133.517 30.6167 3
5 7 -1 120.517 46.9923 1
5 7 -1 49.8653 36.5227 2
-5 7 1 123.636 37.678 2
-4 -7 1 1184.45 63.2439 3
4 7 -1 1185.26 87.0916 1
4 7 -1 1058.65 75.548 2
-4 7 1 1088.75 73.9905 2
-3 -7 1 279.215 36.187 3
-3 7 1 326.832 34.8032 1
3 7 -1 261.783 40.6546 2
3 7 -1 278.418 50.9888 1
-3 7 1 306.124 42.2024 2
-2 -7 1 523.706 45.9118 3
-2 7 1 523.455 58.8443 2
2 7 -1 524.761 64.6991 2
2 7 -1 616.265 68.8522 1
-2 7 1 575.034 50.5247 1
1 -7 -1 19.6153 24.9786 3
-1 -7 1 23.8778 20.7063 3
-1 7 1 8.09658 29.428 2
1 7 -1 86.6086 38.3604 2
1 7 -1 -17.26 30.825 1
-1 7 1 5.93427 27.3447 1
0 -7 1 60.2591 25.675 3
0 -7 -1 74.283 27.0492 3
0 7 1 40.7882 30.1948 1
0 7 -1 12.9245 33.3366 2
0 7 1 37.5508 30.765 2
0 7 -1 73.5351 33.1752 1
-1 -7 -1 74.16 30.2894 3
1 -7 1 88.6665 25.3867 3
-1 7 -1 77.856 31.3586 2
-1 7 -1 66.0274 29.0355 1
1 7 1 22.6872 33.4929 1
1 7 1 99.9839 32.9753 2
-2 -7 -1 1004.1 57.5086 3
2 7 1 961.541 69.7578 2
-2 7 -1 977.826 57.8151 1
2 7 1 910.025 74.6371 1
-2 7 -1 898.855 71.9032 2
-3 -7 -1 369.822 40.7696 3
3 7 1 187.195 51.9751 1
3 7 1 291.434 44.1564 2
-3 7 -1 299.759 49.9214 2
-4 -7 -1 651.479 49.8304 3
4 7 1 520.484 64.8842 2
-4 7 -1 614.313 67.1771 2
4 7 1 550.322 61.6731 1
-5 -7 -1 46.9232 25.3653 3
5 7 1 13.2119 33.1286 2
5 7 1 1.52357 39.2921 1
-5 7 -1 30.2818 44.7927 2
6 -7 1 7.82559 34.6322 2
-6 -7 -1 29.8007 24.2283 3
-6 7 -1 -29.228 39.4396 2
6 7 1 24.6283 38.7939 2
6 7 1 -0.6508 43.6095 1
7 -7 1 -34.356 36.6592 2
-7 -7 -1 4.43812 28.0496 3
-7 7 -1 8.3891 45.7643 2
7 7 1 81.1092 54.4671 1
7 7 1 122.565 41.1163 2
-8 -7 -1 858.375 58.1458 3
8 -7 1 717.738 84.5101 2
-8 7 -1 729.796 89.462 2
8 7 1 1173.89 118.416 1
-9 -7 -1 99.5445 32.0736 3
9 -7 1 70.4755 49.2378 2
-9 7 -1 59.6998 55.7629 2
9 7 1 30.2424 73.0305 1
10 -7 1 594.168 77.2965 2
-10 -7 -1 622.951 59.0158 3
10 7 1 583.652 98.8649 1
-10 7 -1 606.173 77.8036 2
-11 -7 -1 54.0616 31.5422 3
11 -7 1 -17.111 67.7172 2
12 -7 1 35.9333 83.7953 2
-12 -7 -1 1.5731 35.5777 3
-10 -8 1 48.5707 38.4893 3
-9 -8 1 37.4925 36.9277 3
9 8 -1 76.7633 99.8643 2
-8 -8 1 432.128 53.8213 3
8 8 -1 441.731 106.146 1
8 8 -1 203.473 87.386 2
-8 8 1 265.257 67.9011 2
-7 -8 1 587.667 60.9151 3
7 8 -1 522.84 84.0467 2
-7 8 1 571.184 70.306 2
7 8 -1 492.452 95.5239 1
-6 -8 1 671.884 61.5299 3
6 8 -1 588.705 79.8532 2
6 8 -1 509.347 90.0838 1
-6 8 1 671.267 71.1337 2
-5 -8 1 235.532 42.7193 3
5 8 -1 158.341 67.8665 1
5 8 -1 311.257 61.1592 2
-4 -8 1 -44.441 28.4942 3
4 8 -1 95.8713 58.4483 2
4 8 -1 35.4738 60.8495 1
-4 8 1 -10.352 55.7655 2
-3 -8 1 -29.153 28.282 3
-3 8 1 -11.004 46.7264 2
3 8 -1 -114.52 43.2121 2
3 8 -1 -33.519 55.0819 1
-2 -8 1 298.807 43.6771 3
-2 8 1 349.442 49.9512 1
2 8 -1 281.844 56.8618 2
-2 8 1 346.42 59.4263 2
-1 -8 1 725.968 60.7798 3
1 8 -1 736.092 91.2118 2
1 8 -1 640.625 87.882 1
-1 8 1 638.328 78.9242 1
-1 8 1 812.629 94.4577 2
0 -8 1 510.33 58.1556 3
0 -8 -1 395.267 47.7976 3
0 8 1 329.348 55.3024 1
0 8 1 434.137 69.6001 2
0 8 -1 483.231 63.4143 2
0 8 -1 453.778 58.3043 1
-1 -8 -1 278.318 41.4412 3
-1 8 -1 356.955 53.0577 1
1 8 1 287.453 55.8856 2
-1 8 -1 349.273 58.7825 2
1 8 1 327.253 64.526 1
-2 -8 -1 177.476 41.7266 3
2 8 1 100.908 50.0354 1
2 8 1 72.8569 49.1833 2
-2 8 -1 160.393 54.7093 2
-2 8 -1 105.346 37.8243 1
-3 -8 -1 -9.1968 27.2676 3
-3 8 -1 -84.164 49.429 2
3 8 1 30.8158 56.7996 1
3 8 1 -28.498 46.5904 2
-4 -8 -1 357.237 42.443 3
4 8 1 313.763 66.5852 1
4 8 1 375.686 63.7699 2
-4 8 -1 320.374 63.2036 2
-5 -8 -1 484.323 58.2141 3
5 8 1 543.139 81.9765 1
-5 8 -1 566.657 76.4946 2
5 8 1 582.936 75.5455 2
-6 -8 -1 625.531 61.4951 3
-6 8 -1 698.84 80.7136 2
6 8 1 808.225 109.812 2
6 8 1 456.673 89.4769 1
-7 -8 -1 334.728 51.5013 3
7 8 1 367.999 77.2781 2
7 8 1 310.769 90.3259 1
-7 8 -1 373.343 73.2966 2
8 -8 1 64.112 58.9206 2
-8 -8 -1 60.8214 36.8358 3
-8 8 -1 -13.467 68.6602 2
8 8 1 166.738 103.818 1
8 8 1 171.318 72.5369 2
-9 -8 -1 60.4052 39.4621 3
9 -8 1 10.9235 69.2055 2
9 8 1 173.237 89.8237 2
-9 8 -1 98.171 78.4961 2
-10 -8 -1 -3.0911 35.3861 3
-6 -9 1 -16.038 37.2775 3
6 9 -1 38.1808 104.532 2
6 9 -1 -36.068 113.143 1
-5 -9 1 349.532 51.618 3
5 9 -1 457.051 113.225 1
5 9 -1 574.382 109.177 2
-4 -9 1 -19.697 35.936 3
4 9 -1 85.0557 93.9632 1
4 9 -1 34.6995 87.9815 2
-3 -9 1 724.13 76.3387 3
3 9 -1 768.27 103.851 2
-3 9 1 1043.39 108.109 2
3 9 -1 1253.11 152.606 1
-2 -9 1 75.0419 39.2144 3
2 9 -1 64.7804 80.7425 2
2 9 -1 -35.075 79.0719 1
-2 9 1 67.7386 70.8058 2
-1 -9 1 39.2459 39.7049 3
-1 9 1 14.9666 77.9654 2
1 9 -1 -105.11 93.1297 1
1 9 -1 96.4696 78.1177 2
0 9 1 -18.17 70.1748 2
0 9 -1 46.4297 74.0765 2
-1 -9 -1 384.84 54.276 3
-1 9 -1 620.385 93.6691 2
1 9 1 463 81.0885 2
1 9 1 498.02 85.7973 1
2 9 1 97.2113 80.6457 1
-2 9 -1 312.172 87.3801 2
2 9 1 265.381 79.7905 2
-3 -9 -1 1018.83 82.9808 3
3 9 1 1203.92 141.732 2
-3 9 -1 1061.2 108.165 2
3 9 1 967.585 114.709 1
-4 -9 -1 11.7118 39.9202 3
4 9 1 5.33254 81.6964 2
4 9 1 -53.316 98.2769 1
-4 9 -1 -15.545 86.5822 2
-5 -9 -1 119.952 41.3219 3
5 9 1 -82.722 86.6534 2
5 9 1 195.674 110.341 1
-5 9 -1 201.143 94.6741 2
19 0 -2 -212.55 171.668 1
18 0 -2 471.133 128.723 1
17 0 -2 -84.827 81.2744 1
17 0 -2 -61.893 65.2742 2
16 0 -2 53.6327 56.4138 2
16 0 -2 51.8982 66.9666 1
15 0 -2 52.1369 47.9377 2
-15 0 2 -5.9515 33.3046 1
15 0 -2 82.8175 53.7407 1
-14 0 2 1790.05 88.609 1
14 0 -2 1710.77 110.018 1
14 0 -2 1763.22 99.6421 2
-13 0 2 -17.109 23.0061 1
13 0 -2 -20.968 28.3382 2
13 0 -2 23.5436 34.792 1
12 0 -2 1433 88.4733 1
-12 0 2 1560.12 73.2127 1
11 0 -2 -27.192 24.022 1
-11 0 2 -16.235 15.81 1
10 0 -2 301.691 43.4541 1
-10 0 2 260.51 29.7052 1
-9 0 2 6.19718 13.6035 1
9 0 -2 3.75534 17.2292 1
8 0 -2 2940.04 104.883 1
-8 0 2 2846.81 95.3432 1
7 0 -2 -3.8082 11.8097 1
-7 0 2 8.10594 9.41218 1
-6 0 2 2618.99 84.147 1
6 0 -2 2646.95 89.4963 1
5 0 -2 -3.5898 9.40299 1
-5 0 2 4.74499 8.1439 1
4 0 -2 390.657 24.7523 1
-4 0 2 388.132 23.6359 1
-3 0 2 6.18712 5.27549 1
3 0 -2 3.91818 6.54929 1
2 0 -2 9028.38 228.381 1
-2 0 2 9400.56 228.585 1
1 0 -2 2.59487 3.80035 1
-1 0 2 -1.5021 3.34833 1
0 0 2 6997.18 168.866 2
0 0 -2 6953.19 168.95 2
-1 0 -2 -3.7397 2.90826 2
1 0 2 4.73838 3.66792 2
2 0 2 1410.49 44.7613 2
-2 0 -2 1391.15 44.2966 2
3 0 2 -3.5807 5.14767 2
4 0 2 3468.8 103.187 2
4 0 2 3635.24 97.3756 1
5 0 2 3.47032 7.71598 1
5 0 2 -4.6404 7.61283 2
6 0 2 8772.88 237.339 2
6 0 2 9065.21 230.488 1
7 0 2 0.02088 10.1244 1
7 0 2 -9.3081 9.99459 2
8 0 2 39.8251 14.3941 2
8 0 2 40.2541 17.2827 1
9 0 2 -15.572 14.7986 1
9 0 2 -13.039 16.1796 2
10 0 2 1214.92 63.911 1
10 0 2 1323.09 69.6656 2
11 0 2 -8.674 23.565 1
11 0 2 6.74746 21.8264 2
12 0 2 1344.2 81.4524 2
12 0 2 1417.3 79.1993 1
13 0 2 -42.139 31.334 2
13 0 2 -44.411 32.2131 1
14 0 2 124.04 49.8228 2
14 0 2 25.7651 42.8788 1
15 0 2 -36.752 47.5737 2
15 0 2 6.67564 49.7227 1
16 0 2 408.654 72.2768 2
16 0 2 386.806 73.611 1
17 0 2 22.2673 88.9817 1
18 0 2 893.34 141.614 1
18 -1 -2 143.13 110.231 1
18 1 -2 174.259 121.706 1
17 -1 -2 442.156 92.171 1
17 -1 -2 443.988 82.2094 2
17 1 -2 458.435 99.7349 1
17 1 -2 471.38 84.2052 2
16 -1 -2 264.451 69.9107 2
16 -1 -2 284.711 70.7202 1
16 1 -2 317.817 84.4904 1
16 1 -2 152.543 61.4234 2
15 -1 -2 311.541 58.1213 2
15 -1 -2 345.163 64.843 1
-15 -1 2 258.455 51.4906 1
-15 1 2 348.72 48.5783 1
15 1 -2 315.438 63.6351 1
14 -1 -2 37.8185 35.3567 2
-14 -1 2 60.8004 32.3062 1
14 -1 -2 42.4956 45.8095 1
14 1 -2 85.9783 48.6275 1
-14 1 2 66.6897 30.4259 1
13 -1 -2 28.8814 31.0899 2
13 -1 -2 36.4648 35.5404 1
-13 -1 2 -23.128 24.3234 1
13 1 -2 53.1883 40.0808 1
-13 1 2 -7.1052 21.9924 1
12 -1 -2 165.967 36.1617 1
-12 -1 2 123.421 28.432 1
12 -1 -2 149.926 32.3399 2
-12 1 2 182.241 29.6391 1
12 1 -2 167.378 41.5528 1
-11 -1 2 1261.41 64.8684 1
11 -1 -2 1221.03 66.3619 2
11 -1 -2 1278.62 73.2697 1
-11 1 2 1217.58 58.8616 1
11 1 -2 1269.94 77.2257 1
10 -1 -2 437.422 40.4539 2
-10 -1 2 435.619 39.7047 1
10 -1 -2 425.301 46.7074 1
-10 1 2 495.467 35.9823 1
10 1 -2 515.966 50.7593 1
-9 -1 2 1652.36 70.3899 1
9 -1 -2 1718.07 70.8406 2
9 -1 -2 1706.76 75.6318 1
-9 1 2 1794 66.7426 1
9 1 -2 1701.32 79.7938 1
8 -1 -2 12.0452 16.0546 1
8 -1 -2 37.9419 11.8809 2
-8 -1 2 28.5284 13.607 1
8 1 -2 28.5804 17.9486 1
-8 1 2 35.3662 12.5174 1
7 -1 -2 20.7576 9.65306 2
-7 -1 2 23.3731 12.2583 1
7 -1 -2 18.5114 12.3621 1
7 1 -2 15.3221 14.1219 1
-7 1 2 33.6023 11.4566 1
6 -1 -2 34.9799 12.8039 1
-6 -1 2 65.7559 14.3867 1
6 -1 -2 62.6169 13.1422 2
-6 1 2 52.0059 11.4633 1
6 1 -2 45.192 16.4786 1
-5 -1 2 2690.25 86.0845 1
5 -1 -2 2729.55 83.5741 1
5 1 -2 2541.07 88.0606 1
-5 1 2 2726.62 81.0938 1
4 -1 -2 202.374 18.0928 1
-4 -1 2 214.253 18.9603 1
4 1 -2 226.225 21.5995 1
-4 1 2 194.743 17.1503 1
-3 -1 2 1773.58 58.4262 1
3 -1 -2 1738.08 54.3727 1
3 -1 -2 1739.22 50.5746 2
3 1 -2 1822.14 60.2302 1
-3 1 2 1763.21 55.1959 1
-2 -1 2 1401.26 48.0983 1
2 -1 -2 1482.41 39.861 2
2 1 -2 1518.99 50.0044 1
-2 1 2 1436.25 45.1776 1
-1 -1 2 443.586 20.6819 1
-1 -1 2 475.462 14.8523 3
-1 1 2 459.218 15.6869 3
1 1 -2 452.801 20.3127 2
1 1 -2 466.068 14.4483 3
1 1 -2 450.703 21.5474 1
0 -1 2 116.622 10.5659 2
0 -1 2 116.727 7.02911 3
0 -1 -2 125.469 6.87029 3
0 -1 2 129.34 10.5803 1
0 1 -2 110.82 11.4951 2
0 1 -2 137.047 6.83603 3
0 1 2 136.626 6.42646 3
0 1 -2 118.209 10.2538 1
-1 -1 -2 6648.86 157.09 3
1 -1 2 6468.33 159.655 1
1 -1 2 6484.76 167.301 2
-1 1 -2 6694.13 158.77 3
-1 1 -2 6513.46 167.31 2
1 1 2 6663.59 156.669 3
2 -1 2 3204.54 91.5558 2
-2 1 -2 3259.32 91.3445 2
3 -1 2 1167.16 44.4684 2
-3 1 -2 1157.3 44.0976 2
4 -1 2 359.5 24.9149 2
4 -1 2 345.709 16.6761 1
4 1 2 355.136 22.4555 1
-4 1 -2 353.391 24.7994 2
5 -1 2 47.1774 12.3101 2
5 -1 2 67.2579 9.94238 1
-5 1 -2 36.9415 11.2802 2
5 1 2 64.8031 11.6584 1
6 -1 2 98.4512 18.2285 2
6 -1 2 78.6092 13.792 1
6 1 2 72.2298 14.6764 1
7 -1 2 2150.9 81.706 2
7 -1 2 2054.85 69.4064 1
7 1 2 2071.48 76.6122 1
8 -1 2 680.606 38.2974 1
8 -1 2 699.878 45.5402 2
8 1 2 690.412 43.209 1
9 -1 2 2527.07 100.251 2
9 -1 2 2584.24 91.0693 1
9 1 2 2593.7 99.397 1
10 -1 2 97.9791 26.5508 2
10 -1 2 59.9944 24.579 1
10 1 2 52.1786 24.2701 1
10 1 2 113.857 25.3586 2
11 -1 2 114.857 28.2139 1
11 -1 2 109.728 30.4256 2
11 1 2 113.602 38.8515 2
11 1 2 110.208 27.7432 1
12 -1 2 18.6324 26.6294 1
12 -1 2 29.4145 29.0589 2
12 1 2 74.0511 32.1367 2
13 -1 2 745.336 69.3819 1
13 -1 2 717.708 71.8206 2
13 1 2 537.72 73.6333 1
13 1 2 909.424 77.0388 2
14 -1 2 117.009 48.5515 2
14 -1 2 194.339 46.3539 1
14 1 2 118.22 47.8924 1
14 1 2 141.479 48.1833 2
15 -1 2 948.079 99.8157 1
15 -1 2 1169.64 111.417 2
15 1 2 1135.02 112.736 2
15 1 2 1109.42 109.954 1
16 -1 2 69.196 67.6156 2
16 -1 2 -14.446 59.9471 1
16 1 2 180.975 74.8172 1
16 1 2 47.5356 62.4031 2
17 -1 2 51.7448 83.6195 1
17 1 2 -74.462 86.98 1
18 -2 -2 381.441 110.131 1
17 -2 -2 241.908 82.656 2
17 -2 -2 -69.498 74.5921 1
17 2 -2 110.266 102.248 1
16 -2 -2 58.5189 62.3692 2
16 -2 -2 117.031 63.4353 1
16 2 -2 125.548 78.5833 1
15 -2 -2 317.021 62.6512 1
15 -2 -2 419.228 65.4757 2
14 -2 -2 645.167 77.6025 2
-14 -2 2 476.505 60.4566 1
14 -2 -2 526.746 65.7883 1
14 2 -2 418.261 66.3346 1
-14 2 2 494.109 52.074 1
13 -2 -2 1006.55 77.4538 2
13 -2 -2 1151.05 83.1577 1
-13 -2 2 1101.16 73.6209 1
13 2 -2 1191.15 93.4978 1
-13 2 2 1161.99 62.3545 1
12 -2 -2 329.017 46.7205 1
12 -2 -2 343.25 43.9376 2
-12 -2 2 387.003 49.049 1
12 2 -2 427.7 56.6342 1
-12 2 2 368.028 39.787 1
-11 -2 2 319.991 41.6568 1
11 -2 -2 304.388 39.6019 2
11 -2 -2 259.309 39.3535 1
-11 2 2 299.155 33.4816 1
11 2 -2 270.785 60.5295 1
10 -2 -2 30.2666 18.9238 2
10 -2 -2 58.4843 24.1607 1
-10 -2 2 4.63228 18.0717 1
-10 2 2 7.90949 16.095 1
10 2 -2 -22.434 23.024 1
9 -2 -2 743.345 45.5512 1
-9 -2 2 610.637 46.3856 1
9 -2 -2 694.349 44.4932 2
9 2 -2 763.52 56.2429 1
-9 2 2 681.49 39.2165 1
8 -2 -2 347.471 31.3559 2
-8 -2 2 372.947 34.4841 1
8 -2 -2 363.29 33.059 1
-8 2 2 396.753 27.707 1
8 2 -2 377.613 41.561 1
7 -2 -2 3216.38 98.3305 1
-7 -2 2 3241.39 105.931 1
7 -2 -2 3089.32 100.783 2
7 2 -2 3063.29 112.952 1
-7 2 2 3147.42 95.0285 1
6 -2 -2 2745.36 82.4748 1
6 -2 -2 2668.44 86.0146 2
-6 -2 2 2665.22 90.0619 1
-6 2 2 2751.88 81.7565 1
6 2 -2 2572.36 96.8118 1
5 -2 -2 2121.87 68.9855 2
-5 2 2 2104.01 66.6967 1
5 2 -2 2152.42 80.7398 1
-4 -2 2 161.094 11.5276 3
-4 -2 2 184.297 18.8032 1
4 -2 -2 166.846 14.8602 2
4 2 -2 144.722 22.0624 1
-4 2 2 175.829 16.639 1
-3 -2 2 1523.95 44.0054 3
3 -2 -2 1497.81 46.2892 2
-3 -2 2 1452.44 53.4863 1
-3 2 2 1525.24 46.5429 2
3 2 -2 1510.86 57.7938 1
-2 -2 2 651.098 22.7471 3
2 -2 -2 632.283 22.8294 2
-2 -2 2 615.257 29.152 1
2 2 -2 663.3 22.041 3
-2 2 2 681.601 24.8898 3
-2 2 2 638.31 23.275 2
2 2 -2 624.024 31.8813 1
-1 -2 2 3710.99 100.052 1
-1 -2 2 3706.79 93.8642 3
1 -2 -2 3689.74 95.1519 3
1 2 -2 3604.21 102.771 2
1 2 -2 3659.93 101.588 1
-1 2 2 3626.32 93.0439 2
-1 2 2 3649.74 93.6632 3
0 -2 2 1474.27 45.5686 1
0 -2 2 1552.93 51.2083 2
0 -2 -2 1475.5 43.3554 3
0 -2 2 1467.09 43.846 3
0 2 2 1578.86 42.5595 3
0 2 -2 1554.17 42.8191 3
0 2 -2 1487.29 52.1948 2
0 2 -2 1493.03 47.2477 1
-1 -2 -2 562.918 20.2863 3
1 -2 2 542.082 19.3709 1
1 -2 2 534.784 27.4913 2
1 -2 2 595.767 22.7328 3
-1 2 -2 572.66 21.5748 3
-1 2 -2 541.531 21.1087 1
1 2 2 551.541 19.2265 3
-1 2 -2 548.396 28.9644 2
2 -2 2 7.99375 6.9944 2
-2 -2 -2 4.97181 3.9267 3
-2 2 -2 7.01923 6.48447 3
2 2 2 -0.9867 3.69043 3
-2 2 -2 -6.9059 7.45605 2
3 -2 2 498.778 29.3721 2
-3 -2 -2 555.295 20.4668 3
-3 2 -2 524.098 30.1402 2
-3 2 -2 526.839 24.4811 3
3 2 2 503.788 28.0069 1
4 -2 2 232.449 23.0488 2
-4 -2 -2 238.004 13.3133 3
-4 2 -2 210.386 22.1545 2
4 2 2 201.873 20.8455 1
5 -2 2 2651.04 92.0644 2
5 -2 2 2707.02 71.6107 1
5 2 2 2709.01 89.3021 1
-5 2 -2 2721.67 89.9167 2
6 -2 2 639.727 39.6599 2
6 -2 2 642.795 27.3396 1
6 2 2 612.23 38.3356 1
-6 2 -2 661.146 39.1769 2
7 -2 2 817.957 36.062 1
7 -2 2 896.633 51.3033 2
-7 2 -2 836.839 46.7899 2
7 2 2 909.157 48.4727 1
8 -2 2 66.5253 19.2112 2
8 -2 2 120.359 17.2832 1
8 2 2 72.0627 18.9307 1
9 -2 2 303.326 40.4644 2
9 -2 2 321.362 31.9346 1
9 2 2 303.993 41.339 1
10 -2 2 285.429 38.0148 1
10 -2 2 273.47 40.1475 2
10 2 2 452.748 52.1629 1
11 -2 2 1830.36 118.668 2
11 -2 2 1787.18 79.659 1
11 2 2 1738.48 93.3741 1
12 -2 2 353.299 43.9988 1
12 -2 2 245.952 47.0837 2
12 2 2 391.775 52.8288 1
13 -2 2 459.839 65.7761 2
13 -2 2 317.464 47.1701 1
13 2 2 368.507 55.6491 1
13 2 2 365.461 50.1906 2
14 -2 2 -77.082 41.8107 1
14 -2 2 69.6348 50.1427 2
14 2 2 14.7558 48.9593 1
14 2 2 -16.894 42.3642 2
15 -2 2 -65.152 59.6481 2
15 -2 2 -45.334 53.274 1
15 2 2 63.3929 61.2849 1
15 2 2 -56.639 52.0461 2
16 -2 2 167.345 76.3716 2
16 2 2 93.5802 76.3895 1
16 2 2 108.119 69.8088 2
17 -2 2 502.245 96.8867 1
17 2 2 536.878 136.932 1
17 -3 -2 -66.601 83.5992 2
16 -3 -2 752.764 81.8698 1
16 -3 -2 802.572 100.26 2
16 3 -2 773.358 119.408 1
15 -3 -2 8.82208 58.8695 2
15 -3 -2 46.7869 51.9053 1
15 3 -2 -54.937 66.2353 1
14 -3 -2 186.201 54.0108 2
14 -3 -2 258.54 47.4476 1
14 3 -2 178.378 65.4376 1
13 -3 -2 39.8455 33.8814 1
13 -3 -2 55.571 38.6428 2
13 3 -2 -28.677 43.9322 1
-13 3 2 -21.39 20.6596 1
12 -3 -2 466 51.3885 1
-12 -3 2 308.636 42.0754 1
12 -3 -2 436.268 58.595 2
12 3 -2 295.207 48.5725 1
-12 3 2 310.464 37.2315 1
11 -3 -2 -8.6629 24.748 2
-11 -3 2 13.0647 23.0028 1
11 3 -2 53.3222 32.8442 1
-11 3 2 7.59027 17.418 1
10 -3 -2 1856.07 81.8595 2
-10 -3 2 1803.64 118.118 1
10 3 -2 1800.14 112.706 1
-10 3 2 1886.14 66.1227 1
9 -3 -2 22.1257 19.1574 2
-9 -3 2 7.89184 18.2851 1
-9 3 2 36.3436 14.7354 1
9 3 -2 59.4942 28.1012 1
-8 -3 2 253.505 32.2199 1
8 -3 -2 215.761 29.7066 2
-8 3 2 229.365 23.8334 1
8 3 -2 188.857 33.7026 1
-7 -3 2 60.1569 17.9509 1
7 -3 -2 61.6003 15.9564 2
-7 -3 2 42.0079 8.97847 3
-7 3 2 65.4021 14.4754 1
7 3 -2 18.4938 19.4489 1
6 -3 -2 1219.69 51.6169 2
-6 -3 2 1275.29 43.6849 3
-6 -3 2 1213.16 56.1453 1
6 3 -2 1281.56 65.2633 1
-6 3 2 1173.95 45.1306 1
5 -3 -2 -3.1395 8.53551 2
-5 -3 2 10.9163 6.73828 3
-5 -3 2 5.93265 11.5819 1
-5 3 2 13.2836 9.29604 2
-5 3 2 6.27178 9.81427 1
5 3 -2 20.0482 14.2768 1
-4 -3 2 5171.95 131.15 3
-4 -3 2 5076.3 144.682 1
4 -3 -2 5003.92 135.995 2
-4 3 2 4997.62 133.484 1
4 3 -2 4816.78 149.45 1
-4 3 2 4887.47 134.658 3
-4 3 2 5105.98 135.328 2
3 -3 -2 6.34109 7.34943 2
-3 -3 2 -7.6241 8.34769 1
-3 -3 2 10.2173 6.90221 3
3 3 -2 17.3834 12.8534 1
-3 3 2 17.0132 8.41514 2
-3 3 2 8.71222 10.6194 3
-2 -3 2 437.444 24.8707 1
2 -3 -2 410.74 20.0005 2
-2 -3 2 388.382 20.1917 3
-2 3 2 406.897 23.2559 3
2 3 -2 412.17 28.1406 2
2 3 -2 420.252 30.0717 1
-2 3 2 450.991 23.2008 2
2 3 -2 401.89 19.6984 3
-1 -3 2 20.2867 7.78209 3
-1 -3 2 18.5156 7.76296 1
1 -3 -2 2.61892 6.9091 3
1 3 -2 42.2926 8.93284 3
-1 3 2 14.2591 7.66055 2
1 3 -2 12.3063 10.9596 2
1 3 -2 21.9889 10.4174 1
-1 3 2 21.8574 8.70488 3
0 -3 2 1668.52 59.0435 2
0 -3 2 1644.58 51.4075 1
0 -3 -2 1632.98 51.8806 3
0 -3 2 1691.35 52.5985 3
0 3 2 1673.37 52.9246 2
0 3 -2 1760.21 50.7564 3
0 3 2 1710.9 50.2771 3
0 3 -2 1680.39 55.5447 1
0 3 -2 1695.85 62.2345 2
-1 -3 -2 -0.9612 6.26359 3
1 -3 2 -0.3194 7.92666 2
1 -3 2 13.8873 6.93343 3
-1 3 -2 -9.0867 8.90527 3
1 3 2 3.86554 6.57188 3
-1 3 -2 3.66516 9.51508 2
-1 3 -2 6.69316 7.17536 1
-2 -3 -2 5849.41 150.283 3
2 -3 2 5841.22 163.459 2
2 3 2 6065.8 148.043 3
-2 3 -2 5868.24 151.272 3
-2 3 -2 5907.84 165.456 2
-3 -3 -2 487.039 22.7269 3
3 -3 2 548.84 32.8806 2
-3 3 -2 524.058 34.4447 2
3 3 2 519.924 32.2275 1
-3 3 -2 475.676 27.8251 3
4 -3 2 2356.13 84.0282 2
-4 3 -2 2340.4 83.4698 2
4 3 2 2444.42 83.0746 1
-5 -3 -2 104.904 13.9683 3
5 -3 2 93.7402 17.8851 2
5 3 2 113.409 20.1561 1
-5 3 -2 92.1402 20.8678 2
-6 -3 -2 354.728 20.7504 3
6 -3 2 316.87 33.2551 2
6 3 2 380.071 34.9126 1
-6 3 -2 435.393 35.0906 2
7 -3 2 41.9112 20.2949 2
-7 -3 -2 33.1542 8.95226 3
7 3 2 18.5144 17.962 1
-7 3 -2 31.8866 18.7718 2
8 -3 2 2501.53 99.4922 2
8 3 2 2252.38 95.7007 1
-8 3 -2 2446.2 94.3834 2
9 -3 2 -4.7838 21.4923 2
9 3 2 -9.5765 22.3165 1
10 -3 2 1808.48 91.7933 2
10 -3 2 1827.3 63.9426 1
10 3 2 1794.34 94.3941 1
11 -3 2 101.709 39.2448 2
11 -3 2 79.0262 23.4001 1
11 3 2 99.9886 35.5293 1
12 -3 2 265.079 47.6846 2
12 -3 2 164.687 32.276 1
12 3 2 97.6312 37.8595 1
13 -3 2 56.9868 33.5738 1
13 -3 2 -4.9969 46.038 2
13 3 2 -11.464 43.8354 1
14 -3 2 1072.48 80.9716 1
14 -3 2 1041.44 111.623 2
14 3 2 1224.28 121.348 1
15 -3 2 -42.041 61.0496 2
15 -3 2 -5.5807 51.4388 1
15 3 2 -106.45 58.2858 2
15 3 2 67.0671 72.1543 1
16 -3 2 232.843 84.5694 2
16 -3 2 331.044 76.4486 1
17 -4 -2 75.3534 100.053 2
-17 -4 2 79.2412 27.5003 3
16 -4 -2 7.79145 83.3955 2
-16 -4 2 4.48653 21.81 3
-15 -4 2 459.801 41.9227 3
15 -4 -2 376.333 81.3543 2
15 4 -2 407.196 98.3617 1
14 -4 -2 161.525 60.9713 2
-14 -4 2 74.7659 24.9495 3
14 4 -2 148.728 66.4306 1
-13 -4 2 1041.45 53.4611 3
13 -4 -2 1135.51 94.9815 2
13 4 -2 1123.15 110.478 1
12 -4 -2 136.899 44.3093 2
-12 -4 2 108.839 22.2462 3
12 4 -2 26.1893 43.8617 1
-11 -4 2 539.389 35.5665 3
11 -4 -2 470.875 57.6745 2
-11 4 2 561.563 32.8697 1
11 4 -2 385.451 54.6208 1
10 -4 -2 0.41973 23.416 2
-10 -4 2 -9.3423 13.5291 3
10 4 -2 -21.248 33.9106 1
-10 4 2 3.88891 13.4834 1
-9 -4 2 741.437 38.688 3
-9 -4 2 733.892 54.433 1
9 -4 -2 725.321 50.993 2
-9 4 2 707.283 33.1846 1
9 4 -2 671.505 67.7861 1
8 -4 -2 260.178 32.3781 2
-8 -4 2 230.031 33.6436 1
-8 -4 2 260.783 24.7655 3
-8 4 2 176.998 20.9912 1
8 4 -2 245.755 42.8402 1
-7 -4 2 2879.89 103.318 1
7 -4 -2 2695.99 96.3389 2
7 4 -2 2733.57 115.296 1
-7 4 2 2882.96 81.6097 1
6 -4 -2 232.958 25.0033 2
-6 -4 2 242.842 30.9442 1
-6 4 2 223.657 22.5437 1
-6 4 2 233.812 28.0768 2
6 4 -2 193.216 34.8617 1
-5 -4 2 1120.84 53.1917 1
5 -4 -2 1108.36 46.7878 2
-5 -4 2 1085.72 42.8543 3
-5 4 2 1115.04 43.1031 1
5 4 -2 1043.19 60.9531 1
-5 4 2 1043.85 47.1519 2
-4 -4 2 -3.5213 11.2889 1
-4 -4 2 15.8219 8.94735 3
4 -4 -2 7.44593 8.54545 2
4 4 -2 2.93764 16.8133 1
-4 4 2 3.11631 12.4859 2
-3 -4 2 422.463 28.7762 1
-3 -4 2 437.155 24.6066 3
3 -4 -2 366.907 23.7033 2
3 4 -2 388.632 36.6022 1
-3 4 2 391.606 27.3524 2
3 4 -2 380.669 32.5686 2
-2 -4 2 721.567 32.8763 3
2 4 -2 818.461 44.5827 1
-2 4 2 693.773 34.529 2
2 4 -2 709.234 41.4139 2
1 -4 -2 3064.16 92.4652 3
-1 -4 2 3155.88 91.8575 3
-1 4 2 3118.71 93.3273 2
1 4 -2 3198.52 99.8896 1
1 4 -2 3189.46 103.33 2
0 -4 2 217.453 19.0941 3
0 -4 -2 218.847 19.1668 3
0 4 -2 218.174 23.355 1
0 4 -2 204.902 27.4405 2
0 4 2 262.248 21.8134 2
-1 -4 -2 847.59 35.3727 3
1 -4 2 876.649 42.7344 2
1 -4 2 837.383 37.0031 3
-1 4 -2 875.026 46.5868 2
1 4 2 841.036 38.2651 2
-1 4 -2 813.19 35.7981 1
1 4 2 848.799 41.0888 1
2 -4 2 4.17966 10.3986 2
-2 -4 -2 -5.246 7.93035 3
-2 4 -2 1.18053 8.47388 1
2 4 2 5.30595 11.5935 1
-2 4 -2 12.8041 14.9712 2
3 -4 2 614.575 37.5941 2
-3 -4 -2 592.021 28.4515 3
-3 4 -2 611.899 43.4507 2
3 4 2 664.159 38.9865 1
-4 -4 -2 80.8307 13.9161 3
4 -4 2 90.167 19.9632 2
-4 4 -2 90.3885 21.2024 2
4 4 2 83.2385 19.4019 1
-5 -4 -2 1905.2 61.163 3
5 -4 2 1834.77 76.173 2
5 4 2 1763.3 76.5048 1
-5 4 -2 1797.1 77.7096 2
6 -4 2 549.784 42.5157 2
-6 -4 -2 499.818 28.2079 3
6 4 2 515.828 44.2189 1
-6 4 -2 513.974 44.1779 2
7 -4 2 396.805 44.6511 2
-7 -4 -2 459.938 29.7121 3
7 4 2 450.146 46.3894 1
-7 4 -2 441.126 43.0599 2
8 -4 2 36.2567 23.0963 2
-8 -4 -2 19.0766 11.0431 3
-8 4 -2 10.7205 22.2054 2
8 4 2 6.9839 27.7492 1
-9 -4 -2 278.674 26.4224 3
9 -4 2 314.274 43.1623 2
-9 4 -2 279.504 38.1729 2
9 4 2 281.507 45.3076 1
10 -4 2 31.9824 29.3104 2
-10 -4 -2 78.2827 17.3092 3
10 4 2 51.4241 33.5759 1
11 -4 2 1275.87 88.7596 2
-11 -4 -2 1196.8 53.9963 3
11 4 2 1327.27 93.9385 1
-12 -4 -2 166.391 23.8571 3
12 -4 2 168.374 48.6339 2
12 4 2 166.532 52.7357 1
-13 -4 -2 408.912 37.6742 3
13 -4 2 344.526 67.0212 2
13 4 2 348.368 68.196 1
14 -4 2 -6.553 58.8419 2
-14 -4 -2 43.9965 22.7 3
14 4 2 -21.707 75.1109 1
15 -4 2 -26.263 73.6283 2
-15 -4 -2 65.7192 26.6921 3
-16 -4 -2 29.6998 31.0019 3
16 -5 -2 379.604 103.903 2
-16 -5 2 185.074 35.8336 3
-15 -5 2 171.859 33.1605 3
15 -5 -2 342.622 86.2188 2
14 -5 -2 6.39011 62.1399 2
-14 -5 2 43.2687 23.7059 3
13 -5 -2 84.7368 54.5563 2
-13 -5 2 33.0727 19.4056 3
13 5 -2 103.926 73.2031 1
12 -5 -2 185.486 48.9212 2
12 5 -2 244.182 67.4086 1
11 -5 -2 870.464 75.2164 2
-11 -5 2 711.709 46.869 3
11 5 -2 1008.54 101.775 1
-10 -5 2 366.68 34.7268 3
10 -5 -2 454.509 57.1904 2
10 5 -2 374.763 63.8525 1
-9 -5 2 915.818 47.0258 3
9 -5 -2 931.815 62.0196 2
9 5 -2 812.471 76.7296 1
8 -5 -2 128.547 26.5064 2
-8 -5 2 98.4259 18.3099 3
8 5 -2 120.023 35.3117 1
7 -5 -2 20.0814 20.0999 2
-7 -5 2 -9.7241 12.2679 3
-7 5 2 15.7263 20.3242 2
-6 -5 2 143.417 22.0773 3
6 -5 -2 164.557 25.2006 2
-6 5 2 194.463 28.5238 2
6 5 -2 157.855 36.5468 1
5 -5 -2 1284.71 53.9067 2
-5 -5 2 1197.74 51.854 3
5 5 -2 1208.31 72.14 1
-5 5 2 1249.7 57.0561 2
-5 5 2 1216.78 48.8115 1
4 -5 -2 472.941 31.5865 2
-4 -5 2 523.552 33.7679 3
4 5 -2 581.419 50.1528 1
-4 5 2 503.846 38.7777 2
4 5 -2 592.837 45.0181 2
-3 -5 2 1688.51 62.2068 3
3 5 -2 1621.2 75.7823 1
-3 5 2 1559.88 64.1514 2
3 5 -2 1635.15 72.8781 2
-2 -5 2 181.518 24.3515 3
2 5 -2 205.06 30.9666 1
-2 5 2 183.481 24.7425 2
-2 5 2 252.624 23.6994 1
2 5 -2 207.967 31.4231 2
1 -5 -2 -18.69 11.542 3
1 5 -2 3.83797 18.1328 2
1 5 -2 -6.2323 16.3763 1
-1 5 2 -0.9834 13.6744 2
-1 5 2 -6.4105 13.662 1
0 -5 -2 11.6581 18.6056 3
0 5 2 29.3408 16.0499 1
0 5 -2 26.9858 18.2085 2
0 5 2 41.439 17.2655 2
0 5 -2 43.5806 17.6127 1
1 -5 2 948.366 67.5402 3
-1 -5 -2 949.737 50.5308 3
1 5 2 1038.5 48.793 2
-1 5 -2 1047.14 46.5143 1
-1 5 -2 1067.79 57.786 2
1 5 2 1037.48 51.9902 1
2 -5 2 1255.35 58.6557 2
2 5 2 1323.95 56.8527 2
-2 5 -2 1325.31 65.089 2
2 5 2 1203.66 59.6332 1
-2 5 -2 1251.97 48.3022 1
-3 -5 -2 1373.35 55.5911 3
3 -5 2 1400.2 64.2899 2
-3 5 -2 1430.57 70.6112 2
3 5 2 1489.17 67.8164 1
-4 -5 -2 712.258 38.3065 3
4 -5 2 677.209 46.065 2
4 5 2 648.158 48.9503 1
-4 5 -2 618.367 49.0521 2
5 -5 2 -1.8129 17.2115 2
-5 -5 -2 4.79442 14.4215 3
5 5 2 48.2081 21.1708 1
-5 5 -2 25.2274 21.4666 2
6 -5 2 322.061 44.0187 2
-6 -5 -2 398.776 30.3875 3
6 5 2 334.312 49.5825 1
-6 5 -2 487.997 47.2887 2
7 -5 2 1110.94 67.1428 2
-7 -5 -2 863.634 44.9276 3
7 5 2 976.803 68.5178 1
-7 5 -2 964.083 66.2575 2
8 -5 2 541.917 60.7763 2
-8 -5 -2 534.863 36.1044 3
-8 5 -2 564.55 54.5263 2
8 5 2 531.452 66.2944 1
-9 -5 -2 808.592 44.3488 3
9 -5 2 847.201 71.3753 2
-9 5 -2 799.279 66.8727 2
9 5 2 802.276 76.5674 1
10 -5 2 300.617 54.5351 2
-10 -5 -2 265.263 30.7562 3
-10 5 -2 213.842 46.0066 2
10 5 2 237.442 55.6187 1
11 -5 2 73.6375 46.7784 2
-11 -5 -2 158.539 27.7656 3
11 5 2 232.466 58.1676 1
-12 -5 -2 38.0433 21.4544 3
12 -5 2 -39.566 51.5207 2
12 5 2 20.2536 59.4924 1
-13 -5 -2 523.59 46.1142 3
13 -5 2 515.096 79.8152 2
13 5 2 294.912 77.968 1
-14 -5 -2 347.975 42.7005 3
14 -5 2 494.247 90.1906 2
15 -5 2 407.397 126.785 2
-15 -5 -2 490.275 53.1125 3
14 -6 -2 1085.52 111.202 2
-14 -6 2 817.233 63.3394 3
-13 -6 2 51.0356 25.6652 3
13 -6 -2 13.3402 67.8436 2
-12 -6 2 560.982 50.6161 3
12 -6 -2 554.781 71.5015 2
12 6 -2 666.74 100.839 1
11 -6 -2 31.2468 47.2403 2
-11 -6 2 38.8513 24.2574 3
11 6 -2 -73.545 67.6659 1
-10 -6 2 -12.638 20.723 3
10 -6 -2 32.2373 36.9487 2
10 6 -2 -51.084 56.3607 1
-9 -6 2 7.16022 23.9844 3
9 -6 -2 82.8638 32.8367 2
9 6 -2 76.9137 49.5042 1
-8 -6 2 1325.55 63.0206 3
8 -6 -2 1268.69 68.5525 2
-8 6 2 1306.04 72.0131 2
8 6 -2 1098.48 98.2916 1
7 -6 -2 82.4649 23.8738 2
-7 -6 2 57.9168 21.7721 3
-7 6 2 81.4326 29.5404 2
7 6 -2 45.9779 40.7818 1
6 -6 -2 1297.53 60.8582 2
-6 -6 2 1295.99 59.9246 3
6 6 -2 1298.84 75.4533 2
6 6 -2 1244.94 88.409 1
-6 6 2 1401.47 69.3362 2
-5 -6 2 60.7731 21.5657 3
5 6 -2 37.309 31.1756 1
5 6 -2 45.558 27.0087 2
-5 6 2 58.2683 16.6914 1
-5 6 2 72.828 25.9247 2
-4 -6 2 164.656 25.1585 3
4 6 -2 189.196 37.9543 1
-4 6 2 214.19 33.7024 2
4 6 -2 202.319 36.5216 2
-4 6 2 208.187 23.7541 1
-3 -6 2 8.52382 16.3686 3
-3 6 2 38.7285 22.4146 2
3 6 -2 28.3867 28.5006 1
-3 6 2 -1.8721 18.8998 1
3 6 -2 54.1792 23.7811 2
-2 -6 2 863.65 48.1832 3
-2 6 2 817.345 46.7643 1
2 6 -2 961.08 61.3943 2
-2 6 2 838.074 52.6322 2
2 6 -2 792.851 60.151 1
1 -6 -2 284.132 32.4902 3
-1 -6 2 222.655 28.1675 3
1 6 -2 262.368 38.46 2
-1 6 2 282.878 36.9364 1
1 6 -2 232.106 35.4052 1
-1 6 2 265.096 33.928 2
0 -6 -2 3204.37 106.908 3
0 -6 2 3221.3 108.306 3
0 6 2 3268.62 109.674 1
0 6 -2 3201.98 119.521 2
0 6 2 3312.44 110.309 2
0 6 -2 3224.06 109.165 1
1 -6 2 7.76346 15.9997 3
-1 -6 -2 25.8016 18.2132 3
-1 6 -2 -9.7624 24.5654 2
1 6 2 -17.529 19.1434 1
1 6 2 -1.3912 18.5646 2
-1 6 -2 -6.4737 20.9285 1
-2 -6 -2 -1.9369 15.3204 3
2 6 2 17.1679 18.8604 2
2 6 2 0.46486 21.1507 1
-2 6 -2 26.8564 19.6376 1
-2 6 -2 29.0569 24.5761 2
-3 -6 -2 -8.4358 16.6608 3
-3 6 -2 52.1606 29.3571 2
3 6 2 40.5962 25.0143 1
3 6 2 9.17669 19.4663 2
4 -6 2 1907.2 84.0793 2
-4 -6 -2 1960.47 73.8252 3
-4 6 -2 1802.03 87.2078 2
4 6 2 1807.98 92.1067 1
4 6 2 1845 80.0349 2
-5 -6 -2 68.8246 24.5233 3
5 -6 2 72.2171 23.3959 2
-5 6 -2 113.809 32.9414 2
5 6 2 37.0389 31.9322 1
6 -6 2 1652.49 83.2262 2
-6 -6 -2 1765.75 70.0468 3
-6 6 -2 1657.35 89.5822 2
6 6 2 1507.42 91.936 1
-7 -6 -2 67.6353 19.1997 3
7 -6 2 25.3095 33.4504 2
-7 6 -2 46.3008 34.6159 2
7 6 2 100.919 40.754 1
8 -6 2 92.2071 41.3554 2
-8 -6 -2 89.2203 20.7767 3
8 6 2 68.8203 45.0773 1
-8 6 -2 24.44 37.8579 2
9 -6 2 40.267 43.464 2
-9 -6 -2 35.4571 25.9806 3
-9 6 -2 62.9868 41.899 2
9 6 2 -40.736 46.4773 1
10 -6 2 739.862 99.0854 2
-10 -6 -2 723.542 53.6077 3
-10 6 -2 813.859 85.9521 2
10 6 2 898.523 110.052 1
11 -6 2 19.9212 58.051 2
-11 -6 -2 122.836 30.7605 3
11 6 2 167.801 74.0829 1
-12 -6 -2 702.949 57.22 3
12 -6 2 996.543 126.276 2
13 -6 2 6.74376 79.0088 2
-13 -6 -2 8.12661 30.3728 3
-14 -6 -2 18.1088 33.115 3
14 -6 2 125.354 112.5 2
12 -7 -2 15.9886 73.9632 2
-12 -7 2 -26.491 31.0069 3
-11 -7 2 611.587 57.8592 3
11 -7 -2 438.203 66.7816 2
-10 -7 2 93.0114 30.3583 3
10 -7 -2 218.85 47.7214 2
10 7 -2 137.082 83.5106 1
9 -7 -2 688.499 74.6988 2
-9 -7 2 656.775 53.7934 3
9 7 -2 791.464 84.9426 2
9 7 -2 610.987 95.7813 1
8 -7 -2 38.9096 33.7276 2
-8 -7 2 -7.6925 24.5744 3
-8 7 2 24.0082 40.1553 2
8 7 -2 5.31914 48.9123 2
8 7 -2 -56.366 60.2292 1
-7 -7 2 -19.551 24.7621 3
7 7 -2 100.949 44.0549 2
-7 7 2 46.3648 36.6506 2
7 7 -2 135.679 55.6494 1
-6 -7 2 55.1495 23.8887 3
6 7 -2 66.5372 40.6671 2
6 7 -2 35.5751 49.7504 1
-6 7 2 10.0948 36.1663 2
-5 -7 2 1045.98 60.9809 3
5 7 -2 1032.84 81.1625 2
-5 7 2 1080.19 71.9741 2
5 7 -2 1192.28 95.2523 1
-4 -7 2 74.2223 23.2246 3
-4 7 2 122.502 27.691 1
4 7 -2 19.7589 40.436 1
-4 7 2 176.324 39.163 2
4 7 -2 132.096 39.7594 2
-3 -7 2 1015.21 60.019 3
-3 7 2 995.557 59.6957 1
3 7 -2 1036.51 77.7696 2
-3 7 2 1056.68 68.3732 2
3 7 -2 1028.81 82.1605 1
-2 -7 2 88.2246 26.9925 3
2 7 -2 100.101 34.392 2
-2 7 2 85.7006 32.1133 2
-2 7 2 65.6835 29.5301 1
2 7 -2 95.7179 36.2657 1
-1 -7 2 25.5305 19.2702 3
1 7 -2 26.5743 33.8172 1
-1 7 2 9.64923 28.7582 1
-1 7 2 37.9605 29.0663 2
1 7 -2 -42.462 29.079 2
0 -7 -2 18.3564 20.1944 3
0 -7 2 20.5385 20.7803 3
0 7 -2 48.0612 32.2898 1
0 7 2 32.1783 30.0819 2
0 7 -2 -3.8079 33.947 2
0 7 2 58.5476 30.4971 1
-1 -7 -2 843.563 55.5774 3
1 -7 2 768.107 56.4759 3
1 7 2 842.888 62.7125 2
-1 7 -2 868.97 73.718 2
1 7 2 1027.09 71.4045 1
-1 7 -2 863.566 63.1182 1
-2 -7 -2 158.698 28.2914 3
-2 7 -2 165.622 40.7145 2
2 7 2 147.165 40.8168 1
-2 7 -2 225.915 31.6491 1
2 7 2 141.165 33.2356 2
-3 -7 -2 832.677 53.6835 3
-3 7 -2 731.664 72.715 2
3 7 2 744.751 75.6949 1
3 7 2 773.574 64.7283 2
-4 -7 -2 110.204 26.0943 3
4 7 2 62.1983 36.5712 2
4 7 2 129.865 42.9983 1
-4 7 -2 79.8968 41.391 2
-5 -7 -2 28.0876 27.3793 3
5 -7 2 29.0157 31.8505 2
5 7 2 80.9742 35.3358 2
5 7 2 -23.027 41.2283 1
-5 7 -2 9.76385 36.9913 2
6 -7 2 16.6565 35.803 2
-6 -7 -2 26.6959 25.0146 3
6 7 2 1.30259 37.7834 2
-6 7 -2 2.48606 42.0346 2
6 7 2 -100.36 44.821 1
7 -7 2 697.04 70.1053 2
-7 -7 -2 710.71 55.7626 3
-7 7 -2 785.331 86.4119 2
7 7 2 660.314 81.8936 1
8 -7 2 40.287 48.4316 2
-8 -7 -2 38.4124 28.427 3
8 7 2 -19.225 60.1185 1
-8 7 -2 11.1072 51.9102 2
9 -7 2 938.651 100.553 2
-9 -7 -2 882.381 63.772 3
9 7 2 824.931 100.85 1
-9 7 -2 859.623 102.563 2
-10 -7 -2 60.5939 32.9214 3
10 -7 2 40.6487 60.7298 2
-10 7 -2 -55.238 65.4261 2
-11 -7 -2 -0.4469 29.8777 3
11 -7 2 -23.127 71.6613 2
12 -7 2 171.705 90.4624 2
-12 -7 -2 -36.594 40.5757 3
-10 -8 2 -21.935 35.7916 3
-9 -8 2 85.5322 37.2859 3
-8 -8 2 331.535 47.0549 3
8 8 -2 262.795 107.886 1
8 8 -2 557.101 94.3607 2
-7 -8 2 780.159 66.7049 3
-7 8 2 608.687 69.1473 2
7 8 -2 675.678 88.5402 2
7 8 -2 630.623 97.9529 1
-6 -8 2 364.971 54.3967 3
6 8 -2 328.749 69.732 2
-6 8 2 448.256 61.7364 2
6 8 -2 422.429 82.9031 1
-5 -8 2 195.41 40.127 3
5 8 -2 251.185 68.8527 1
-5 8 2 172.666 49.67 2
5 8 -2 181.202 63.6202 2
-4 -8 2 28.7293 30.829 3
-4 8 2 -18.397 46.6466 2
4 8 -2 -47.849 54.3173 2
4 8 -2 164.732 63.0261 1
-3 -8 2 165.727 40.6958 3
3 8 -2 379.724 68.1609 1
-3 8 2 138.264 48.0103 2
-3 8 2 155.63 41.1399 1
3 8 -2 227.266 58.8015 2
-2 -8 2 361.856 47.8694 3
-2 8 2 585.888 58.3398 1
2 8 -2 680.919 91.1017 1
2 8 -2 892.936 91.2526 2
-2 8 2 572.926 78.072 2
-1 -8 2 554.374 56.7373 3
1 8 -2 600.113 69.9801 2
1 8 -2 631.547 70.405 1
-1 8 2 578.533 74.5879 2
-1 8 2 572.699 74.3337 1
0 -8 -2 350.88 44.9432 3
0 -8 2 356.293 49.6565 3
0 8 2 344.764 55.463 2
0 8 -2 393.674 58.2157 1
0 8 -2 347.256 60.0348 2
0 8 2 448.67 55.4751 1
-1 -8 -2 195.421 37.6397 3
-1 8 -2 162.771 54.8299 2
1 8 2 305.628 51.4722 1
1 8 2 214.717 51.1337 2
-1 8 -2 233.732 48.585 1
-2 -8 -2 -38.477 28.1098 3
-2 8 -2 25.6058 53.7104 2
2 8 2 47.0498 49.5241 1
2 8 2 41.3561 45.784 2
-3 -8 -2 146.964 31.5634 3
-3 8 -2 5.87045 55.1539 2
3 8 2 330.224 60.8667 1
3 8 2 65.9346 52.3467 2
-4 -8 -2 506.523 54.4345 3
-4 8 -2 326.607 63.777 2
4 8 2 464.134 64.4384 2
4 8 2 343.974 69.6328 1
-5 -8 -2 672.632 63.3545 3
5 8 2 577.192 82.5227 1
-5 8 -2 855.195 104.693 2
5 8 2 679.887 77.126 2
-6 -8 -2 393.178 49.7858 3
6 8 2 393.492 81.339 1
6 8 2 273.328 69.673 2
-6 8 -2 387.825 74.2903 2
-7 -8 -2 131.794 48.5103 3
7 8 2 8.98007 79.2959 1
7 8 2 -42.887 66.14 2
-7 8 -2 136.603 71.3753 2
8 -8 2 31.7969 62.8897 2
-8 -8 -2 37.5316 35.7578 3
-8 8 -2 124.525 78.5017 2
8 8 2 -4.3055 74.4514 2
-9 -8 -2 52.9786 40.5932 3
9 -8 2 159.902 76.2529 2
-9 8 -2 111.488 84.5132 2
9 8 2 -97.749 85.2869 2
-6 -9 2 220.317 51.5914 3
-5 -9 2 18.8975 37.0804 3
5 9 -2 37.6223 98.2685 2
5 9 -2 131.245 112.722 1
-4 -9 2 889.551 75.6479 3
4 9 -2 861.264 124.891 1
4 9 -2 1118.62 152.914 2
-3 -9 2 68.7109 44.9751 3
3 9 -2 113.042 83.8299 2
3 9 -2 -83.789 88.9382 1
-2 -9 2 266.63 53.3998 3
2 9 -2 288.794 91.2882 1
2 9 -2 261.932 84.1491 2
-1 -9 2 -25.489 41.005 3
-1 9 2 -13.112 72.006 2
1 9 -2 57.539 81.7221 2
0 9 2 246.673 81.6383 1
0 9 -2 338.442 85.747 2
0 9 2 279.996 70.7526 2
-1 -9 -2 121.353 46.6347 3
-1 9 -2 150.85 84.8637 2
1 9 2 139.746 69.2952 2
1 9 2 76.5843 80.5704 1
-2 -9 -2 796.124 77.7117 3
2 9 2 887.484 102.956 1
2 9 2 819.105 94.9126 2
-2 9 -2 742.542 106.577 2
-3 -9 -2 -53.526 38.1296 3
3 9 2 71.7246 90.7977 1
3 9 2 -7.8355 79.4185 2
-3 9 -2 262.791 88.1443 2
-4 -9 -2 279.91 53.9862 3
4 9 2 334.2 103.958 1
-4 9 -2 438.608 96.6948 2
4 9 2 393.745 91.9129 2
-5 -9 -2 10.326 43.2388 3
5 9 2 -56.639 94.0741 2
-5 9 -2 -81.362 93.7786 2
5 9 2 -195.67 108.927 1
18 0 -3 -10.515 104.055 1
17 0 -3 -1.834 63.5049 2
16 0 -3 50.3551 55.8978 2
-16 0 3 -9.3215 41.7143 1
-15 0 3 532.88 60.6994 1
15 0 -3 360.486 66.4461 1
15 0 -3 442.161 60.0453 2
-14 0 3 -9.8558 29.2575 1
14 0 -3 -36.861 43.7886 1
14 0 -3 18.8006 33.801 2
13 0 -3 2599.62 185.116 1
-13 0 3 2694.16 119.786 1
-12 0 3 37.82 21.9564 1
12 0 -3 -21.058 29.2246 1
11 0 -3 28.5793 29.861 1
-11 0 3 11.4031 19.9512 1
-10 0 3 -19.068 14.6745 1
10 0 -3 17.0616 25.4352 1
9 0 -3 1722.09 77.8916 1
-9 0 3 1586.33 69.6271 1
-8 0 3 2.09162 12.8593 1
8 0 -3 -9.1697 15.7372 1
7 0 -3 4095.18 131.349 1
-7 0 3 4225.36 126.512 1
-6 0 3 -4.4875 8.71386 1
6 0 -3 -16.648 10.4382 1
5 0 -3 102.528 17.737 1
-5 0 3 111.279 16.7751 1
4 0 -3 0.81612 8.50657 1
-4 0 3 6.62238 9.23782 1
-3 0 3 9999.99 249.363 1
3 0 -3 9644.66 249.185 1
2 0 -3 -2.3409 6.13964 1
-2 0 3 -1.2549 6.25025 1
-1 0 3 5721.39 147.567 1
1 0 -3 5699.4 141.569 2
-1 0 3 5757 141.03 2
0 0 3 -0.4658 3.20177 2
0 0 -3 -0.0934 3.83689 2
-1 0 -3 33.7322 7.48335 2
1 0 3 31.2838 6.57041 2
2 0 3 5.82029 6.12192 2
-2 0 -3 5.29325 5.35086 2
-3 0 -3 1617.52 54.568 2
4 0 3 2.42739 7.23335 2
5 0 3 7680.8 207.19 2
5 0 3 7666.12 197.17 1
6 0 3 2.46861 10.7134 2
6 0 3 -13.261 7.93853 1
7 0 3 867.228 48.6389 2
7 0 3 854.797 41.0578 1
8 0 3 -10.623 11.427 1
8 0 3 11.6198 13.8012 2
9 0 3 1622.3 69.4762 1
9 0 3 1524.13 74.0814 2
10 0 3 9.65008 17.779 2
10 0 3 -2.2592 20.1057 1
11 0 3 1627.79 89.3427 2
11 0 3 1793.98 82.0286 1
12 0 3 -2.4561 27.614 2
12 0 3 57.302 28.2715 1
13 0 3 308.099 52.8038 2
13 0 3 435.314 69.1101 1
14 0 3 -22.743 39.2565 1
14 0 3 0.24789 43.0156 2
15 0 3 210.186 55.2088 2
15 0 3 255.839 60.5771 1
16 0 3 -162.33 61.1636 1
16 0 3 43.1684 66.2752 2
17 0 3 1152.58 155.63 1
18 0 3 -189.1 119.604 1
19 -1 -3 -133.36 141.126 1
18 -1 -3 436.97 117.516 1
18 1 -3 379.103 123.187 1
17 -1 -3 219.164 72.6146 2
17 -1 -3 226.765 91.4478 1
17 1 -3 423.039 100.997 1
17 1 -3 118.708 70.2888 2
16 -1 -3 521.197 78.3911 1
-16 -1 3 511.818 65.8987 1
16 -1 -3 521.673 78.5986 2
-16 1 3 426.274 57.1682 1
16 1 -3 497.555 89.9082 1
15 -1 -3 115.648 52.693 1
-15 -1 3 4.6977 38.4103 1
15 -1 -3 154.851 48.3514 2
-15 1 3 91.9488 37.8263 1
15 1 -3 87.511 56.5841 1
14 -1 -3 25.1556 36.8986 2
-14 -1 3 9.49494 32.3021 1
-14 1 3 16.4337 32.0188 1
14 1 -3 13.8511 46.1334 1
13 -1 -3 29.0844 30.0152 2
13 -1 -3 3.06226 33.9226 1
-13 -1 3 -2.0054 26.2942 1
13 1 -3 38.2024 40.7942 1
-13 1 3 21.0616 26.858 1
12 -1 -3 673.812 63.8186 1
12 -1 -3 753.63 56.786 2
-12 -1 3 623.904 61.2534 1
-12 1 3 676.036 50.7687 1
12 1 -3 432.994 86.9908 1
-11 -1 3 621.18 49.0337 1
11 -1 -3 661.46 49.2059 2
11 -1 -3 728.345 59.6534 1
-11 1 3 609.647 46.3848 1
11 1 -3 678.348 66.2281 1
-10 -1 3 1691.05 74.701 1
10 -1 -3 1808.09 74.9455 2
10 -1 -3 1824.44 83.5787 1
-10 1 3 1709.71 72.8401 1
10 1 -3 1714.19 88.3006 1
-9 -1 3 233.683 30.905 1
9 -1 -3 253.987 34.7982 1
-9 1 3 276.263 30.0576 1
9 1 -3 171.262 29.2377 1
8 -1 -3 414.516 38.0545 1
-8 -1 3 372.03 33.105 1
8 1 -3 347.371 38.6231 1
-8 1 3 394.934 31.7544 1
7 -1 -3 201.117 26.3106 1
-7 -1 3 171.213 24.9788 1
7 1 -3 127.492 23.2338 1
-7 1 3 215.981 24.1502 1
-6 -1 3 2374.13 82.4227 1
6 -1 -3 2385.21 82.1678 1
6 1 -3 2377.88 88.0347 1
-6 1 3 2410.84 79.8063 1
-5 -1 3 359.895 27.6577 1
5 -1 -3 364.996 26.8621 1
5 1 -3 358.858 30.5924 1
-5 1 3 384.316 25.9341 1
4 -1 -3 3581.24 103.587 1
-4 -1 3 3597.84 107.514 1
-4 1 3 3611.06 104.3 1
4 1 -3 3516.42 109.934 1
-3 -1 3 1521.18 54.3313 1
-3 1 3 1495.14 52.2776 1
3 1 -3 1537.05 56.3955 1
-2 -1 3 2562.33 77.7768 1
2 1 -3 2571.11 78.4161 1
-1 -1 3 1080.02 39.596 1
-1 -1 3 1118.07 38.0427 2
-1 -1 3 1129.67 30.2573 3
-1 1 3 1117.72 30.8204 3
1 1 -3 1067.44 38.7226 2
1 1 -3 1139.08 29.774 3
1 1 -3 1100.26 40.2944 1
0 -1 3 2136.47 63.4627 1
0 -1 3 2181.97 65.2014 2
0 -1 -3 2195.32 55.3273 3
0 -1 3 2211.35 56.1413 3
0 1 -3 2173.54 63.1706 1
0 1 3 2197.89 56.5517 2
0 1 -3 2308.7 55.5871 3
0 1 -3 2201.91 66.0791 2
0 1 3 2214.59 54.7358 3
-1 -1 -3 43.0237 4.56296 3
1 -1 3 26.9725 6.80163 2
1 1 3 32.9507 6.28576 2
-1 1 -3 42.7939 9.46421 2
-1 1 -3 46.0713 5.80242 3
2 -1 3 6304.13 165.15 2
2 1 3 6228.56 158.981 2
-2 1 -3 6214.6 164.932 2
3 -1 3 2788.01 88.0085 2
-3 1 -3 2889.66 87.8872 2
4 -1 3 121.148 18.2479 2
-4 1 -3 156.729 18.7308 2
5 -1 3 30.4194 7.85577 1
5 -1 3 12.1191 10.857 2
-5 1 -3 25.257 12.1014 2
5 1 3 29.5358 10.1899 1
6 -1 3 853.538 34.7365 1
6 -1 3 867.345 47.4128 2
6 1 3 858.329 41.0911 1
-6 1 -3 840.82 44.139 2
6 1 3 789.088 42.4959 2
7 -1 3 702.987 34.3356 1
7 -1 3 726.32 45.2086 2
7 1 3 653.795 40.8967 2
7 1 3 644.426 39.274 1
8 -1 3 2865.07 107.245 2
8 -1 3 2906.67 93.8766 1
8 1 3 2865.5 99.7159 1
8 1 3 2910.81 103.791 2
9 -1 3 232.377 35.5693 2
9 -1 3 240.734 30.0547 1
9 1 3 318.287 38.2057 2
9 1 3 280.108 34.9489 1
10 -1 3 357.463 38.8269 1
10 -1 3 342.85 45.643 2
10 1 3 363.335 44.733 2
10 1 3 351.198 44.0925 1
11 -1 3 32.6983 22.6113 1
11 -1 3 3.39685 24.7846 2
11 1 3 17.5319 22.4723 2
11 1 3 -21.158 29.117 1
12 -1 3 326.657 43.8441 1
12 -1 3 342.034 56.3016 2
12 1 3 328.544 50.2631 1
12 1 3 283.745 42.2235 2
13 -1 3 85.4867 39.2058 2
13 -1 3 77.8903 37.074 1
13 1 3 131.761 41.837 1
13 1 3 157.201 42.5495 2
14 -1 3 1100.08 91.3 1
14 -1 3 1499.15 110.083 2
14 1 3 1438.24 103.729 2
14 1 3 1224.35 99.1568 1
15 -1 3 225.74 67.8411 2
15 -1 3 88.3924 55.6867 1
15 1 3 132.359 56.9774 2
15 1 3 277.731 66.1035 1
16 -1 3 356.806 73.2756 1
16 -1 3 297.095 80.8702 2
16 1 3 215.889 70.9723 2
16 1 3 272.625 83.4759 1
17 -1 3 -32.505 78.4765 1
17 1 3 -11.218 87.3533 1
18 -1 3 13.5499 113.673 1
18 -2 -3 23.4418 111.099 1
17 -2 -3 -81.244 72.9405 2
17 -2 -3 -96.394 79.5766 1
17 2 -3 7.08337 102.807 1
16 -2 -3 102.287 63.3866 1
16 -2 -3 81.3158 57.4913 2
16 2 -3 151.804 84.2113 1
-16 2 3 106.021 41.3119 1
15 -2 -3 377.1 60.7363 2
-15 -2 3 341.81 56.9393 1
-15 2 3 289.101 53.6406 1
15 2 -3 219.439 68.4675 1
14 -2 -3 1216.33 90.994 1
-14 -2 3 1104.09 82.7015 1
14 -2 -3 1058.61 84.3779 2
14 2 -3 1085.62 104.696 1
-14 2 3 996.076 68.1315 1
-13 -2 3 552.896 61.2041 1
13 -2 -3 569.997 60.365 2
13 -2 -3 616.82 69.0973 1
-13 2 3 601.677 52.7786 1
13 2 -3 798.073 87.0154 1
12 -2 -3 550.739 59.9727 1
12 -2 -3 585.034 53.484 2
-12 -2 3 537.607 53.8974 1
-12 2 3 561.519 45.6938 1
11 -2 -3 37.7952 26.7637 1
11 -2 -3 31.4521 25.0951 2
-11 2 3 53.116 20.1121 1
10 -2 -3 334.839 34.729 2
10 -2 -3 267.408 36.7038 1
-10 -2 3 305.304 39.6606 1
-10 2 3 306.465 34.9899 1
10 2 -3 259.699 42.6708 1
9 -2 -3 251.006 34.2119 1
9 -2 -3 199.12 26.7158 2
-9 -2 3 159.136 25.0074 1
-9 2 3 231.761 26.7474 1
9 2 -3 139.868 29.4625 1
-8 -2 3 2003.45 79.6821 1
8 -2 -3 1930.83 75.5379 1
8 -2 -3 1948.07 73.534 2
-8 2 3 2007.25 72.4339 1
8 2 -3 1999.85 87.9947 1
-7 -2 3 931.89 49.7831 1
7 -2 -3 945.485 46.3333 1
7 -2 -3 967.749 44.1604 2
7 2 -3 987.668 57.197 1
-7 2 3 992.408 45.0535 1
-6 -2 3 2249.87 82.2514 1
6 -2 -3 2217.19 72.7357 2
6 2 -3 2217.06 87.2157 1
-6 2 3 2239.49 75.0069 1
5 -2 -3 306.531 19.8478 2
-5 -2 3 335.433 27.759 1
-5 2 3 329.005 24.9682 1
5 2 -3 300.068 31.7811 1
-4 -2 3 62.5954 8.23204 3
-4 -2 3 65.1227 14.4102 1
4 -2 -3 58.6551 9.82079 2
-4 2 3 51.4131 11.416 1
4 2 -3 50.8944 14.6722 1
-3 -2 3 319.561 15.2937 3
-3 -2 3 332.805 23.582 1
3 -2 -3 324.711 15.3204 2
3 2 -3 288.338 25.4621 1
-2 -2 3 6368.45 166.965 1
-2 -2 3 6270.21 155.076 3
2 2 -3 6397.34 153.783 3
2 2 -3 6133.23 166.604 2
2 2 -3 6254.67 169.539 1
-2 2 3 6257.59 156.464 3
1 -2 -3 1359.79 41.9268 3
-1 -2 3 1463.95 49.061 1
-1 -2 3 1380.25 40.9755 3
1 2 -3 1397.64 51.2829 2
1 2 -3 1406.74 50.1285 1
1 2 -3 1450.07 40.0878 3
-1 2 3 1423.32 41.1378 3
0 -2 3 1101.97 42.8837 2
0 -2 3 1104.34 34.3226 3
0 -2 3 1123.05 38.3517 1
0 -2 -3 1092.39 33.5936 3
0 2 3 1095.21 32.4198 3
0 2 -3 1088.77 32.9508 3
0 2 -3 1061.24 44.2905 2
0 2 -3 1043.04 38.9556 1
1 -2 3 25.1756 6.35387 3
-1 -2 -3 18.1974 4.57363 3
1 -2 3 26.8261 6.39739 1
1 -2 3 22.7514 7.60327 2
-1 2 -3 27.0178 6.59884 3
-1 2 -3 18.9349 9.94556 2
1 2 3 21.1566 5.20319 3
-1 2 -3 27.2294 7.47172 1
-2 -2 -3 137.277 9.65467 3
2 -2 3 136.012 17.3161 2
2 -2 3 134.198 9.99857 1
-2 2 -3 163.358 19.4462 2
-2 2 -3 119.998 13.4362 3
-3 -2 -3 188.889 11.6076 3
3 -2 3 182.404 20.5697 2
-3 2 -3 164.333 21.3068 2
-3 2 -3 190.089 16.4254 3
4 -2 3 2086.78 75.5596 2
-4 -2 -3 2147.64 58.7731 3
-4 2 -3 2075.72 76.266 2
5 -2 3 814.465 45.5158 2
5 -2 3 821.359 28.2836 1
-5 2 -3 847.568 44.7602 2
5 2 3 870.003 41.9986 1
6 -2 3 1397.86 64.0998 2
6 -2 3 1392.46 44.4908 1
6 2 3 1349.52 58.3025 1
-6 2 -3 1372.37 61.1459 2
7 -2 3 223.994 31.2021 2
7 -2 3 232.008 20.3012 1
-7 2 -3 226.8 29.9392 2
7 2 3 258.87 30.7056 1
8 -2 3 283.896 36.4065 2
8 -2 3 258.822 25.285 1
8 2 3 245.443 32.3387 1
-8 2 -3 192.888 27.3173 2
9 -2 3 507.056 36.4305 1
9 -2 3 588.207 49.3471 2
9 2 3 553.743 48.0006 1
10 -2 3 1492.55 64.445 1
10 -2 3 1481.34 82.8064 2
10 2 3 1446.97 77.478 1
11 -2 3 308.217 43.6156 2
11 -2 3 286.152 36.4177 1
11 2 3 350.148 45.2263 2
11 2 3 361.605 49.7725 1
12 -2 3 815.125 77.4283 2
12 -2 3 709.93 57.9307 1
12 2 3 768.396 70.3416 2
12 2 3 797.718 73.9389 1
13 -2 3 85.6938 36.5723 1
13 -2 3 91.1786 44.4519 2
13 2 3 36.6342 36.18 2
13 2 3 106.91 44.0492 1
14 -2 3 9.92437 53.3191 2
14 -2 3 -18.375 43.1489 1
14 2 3 -14.792 48.8641 2
14 2 3 25.4016 49.6004 1
15 -2 3 272.458 65.9821 2
15 -2 3 241.03 54.7256 1
15 2 3 130.609 60.4541 2
15 2 3 152.649 65.8685 1
16 -2 3 437.372 93.5792 2
16 2 3 304.037 93.1587 1
16 2 3 297.37 92.4457 2
17 -2 3 98.6644 105.588 1
17 -3 -3 713.119 109.225 2
16 -3 -3 -7.0093 67.8896 2
16 3 -3 -66.075 85.0423 1
15 -3 -3 362.256 59.8246 1
15 -3 -3 403.23 70.479 2
15 3 -3 317.479 85.32 1
-15 3 3 414.195 45.9858 1
-14 -3 3 -28.237 41.7942 1
14 -3 -3 -8.4205 43.3296 1
14 -3 -3 -30.16 44.5642 2
-14 3 3 34.7332 27.6363 1
14 3 -3 99.2921 64.9187 1
13 -3 -3 149.519 41.1749 2
-13 -3 3 100.792 35.4169 1
13 3 -3 168.481 53.6304 1
-13 3 3 181.286 31.2527 1
-12 -3 3 18.9938 29.6193 1
12 -3 -3 7.73321 28.4469 2
-12 3 3 15.5809 21.6603 1
12 3 -3 -8.4442 35.9293 1
-11 -3 3 1661.62 83.4275 1
11 -3 -3 1508.94 79.7635 2
-11 3 3 1681.78 68.2599 1
11 3 -3 1690.58 98.758 1
10 -3 -3 22.208 21.0973 2
-10 -3 3 31.1932 21.1035 1
-10 3 3 -15.249 17.2531 1
10 3 -3 110.383 33.673 1
9 -3 -3 871.846 48.7845 2
-9 -3 3 788.656 54.3991 1
9 3 -3 717.097 63.5612 1
-9 3 3 840.042 44.824 1
8 -3 -3 48.882 16.4829 2
-8 -3 3 36.0596 16.9379 1
8 3 -3 8.43761 23.2214 1
-8 3 3 48.2781 15.4154 1
-7 -3 3 488.061 25.2011 3
-7 -3 3 469.532 37.9767 1
7 -3 -3 442.501 31.9402 2
-7 3 3 571.194 35.3063 1
7 3 -3 547.2 48.6082 1
-6 -3 3 56.9779 9.60111 3
6 -3 -3 31.3099 11.4943 2
-6 3 3 71.1156 14.4741 1
6 3 -3 66.0992 18.8632 1
-5 -3 3 3630.93 98.817 3
-5 -3 3 3634.62 114.016 1
5 -3 -3 3595.14 102.543 2
-5 3 3 3477.36 105.119 1
5 3 -3 3575.3 121.808 1
4 -3 -3 2.08465 6.75053 2
-4 -3 3 -7.708 8.67906 1
-4 -3 3 4.65007 5.4586 3
-4 3 3 2.52896 7.36207 2
-4 3 3 12.6996 14.6806 3
4 3 -3 6.28158 14.5527 1
-4 3 3 -6.5049 9.25749 1
-3 -3 3 2471.3 71.49 3
-3 -3 3 2374.56 80.7252 1
3 -3 -3 2530.72 69.8849 2
-3 3 3 2398.49 73.1857 3
-3 3 3 2538.85 70.8281 2
3 3 -3 2649.73 88.3746 1
-2 -3 3 22.6398 8.72512 1
-2 -3 3 15.5628 6.88989 3
-2 3 3 10.5886 6.56115 2
-2 3 3 38.5466 11.9158 3
2 3 -3 3.75234 6.977 3
2 3 -3 -5.5787 10.0943 2
2 3 -3 45.6611 11.3017 1
-1 -3 3 1109.73 41.7293 1
1 -3 -3 1114.56 39.2943 3
-1 -3 3 1113.18 38.649 3
1 3 -3 1112.36 48.2495 2
-1 3 3 1108.66 37.8986 3
1 3 -3 1121.73 36.636 3
1 3 -3 1093.33 46.5635 1
-1 3 3 1122.17 36.7827 2
0 -3 3 28.8352 7.46497 1
0 -3 3 35.8559 10.4881 2
0 -3 3 35.001 9.39651 3
0 -3 -3 30.1972 8.65183 3
0 3 -3 48.5578 11.3092 1
0 3 -3 35.1325 12.7156 2
0 3 3 35.2008 9.10874 3
0 3 3 33.37 8.48132 2
0 3 -3 31.6562 8.77277 3
-1 -3 -3 4967.7 129.126 3
1 -3 3 4938.3 126.426 1
1 -3 3 5094.04 142.964 2
1 -3 3 4953.74 131.338 3
1 3 3 4941.42 125.831 3
-1 3 -3 4844.27 130.1 1
-1 3 -3 5008.26 128.356 3
-1 3 -3 5032.01 145.807 2
-2 -3 -3 520.26 23.3296 3
2 -3 3 546.916 33.6831 2
-2 3 -3 562.883 26.9896 3
-2 3 -3 589.672 36.3852 2
2 3 3 539.716 23.2317 3
3 -3 3 4774.02 141.812 2
-3 -3 -3 4918.15 124.929 3
-3 3 -3 4717.4 143.664 2
-3 3 -3 4687.59 126.882 3
-4 -3 -3 -0.1082 5.58019 3
4 -3 3 29.1906 14.9943 2
-4 3 -3 5.09367 11.9731 2
4 3 3 -13.241 9.6839 1
-4 3 -3 -8.8057 15.4306 3
-5 -3 -3 40.008 8.2626 3
5 -3 3 49.2687 15.0713 2
-5 3 -3 43.4926 18.1884 2
5 3 3 47.7553 15.0606 1
6 -3 3 28.9197 16.5322 2
-6 -3 -3 1.30071 6.73334 3
6 3 3 15.7679 15.6215 1
-6 3 -3 -1.2554 15.4564 2
-7 -3 -3 2872.28 82.1067 3
7 -3 3 2690.78 104.99 2
-7 3 -3 2791.09 104.035 2
7 3 3 2811.21 103.472 1
-8 -3 -3 8.8366 8.791 3
8 -3 3 -0.268 20.3207 2
8 3 3 -15.299 17.6125 1
-8 3 -3 -7.2696 19.015 2
9 -3 3 2657.19 111.965 2
-9 3 -3 2802.83 107.884 2
10 -3 3 168.862 20.9412 1
10 -3 3 187.259 41.906 2
10 3 3 112.562 33.878 1
11 -3 3 -20.388 22.2683 1
11 -3 3 4.77486 33.3211 2
11 3 3 39.7253 34.4262 1
12 -3 3 10.0688 40.0888 2
12 -3 3 31.78 28.9405 1
12 3 3 58.8966 38.8146 1
13 -3 3 1198.53 71.9686 1
13 -3 3 1417.58 109.376 2
13 3 3 1081.67 94.9417 2
13 3 3 1257.27 104.14 1
14 -3 3 86.5163 38.509 1
14 -3 3 56.6518 60.0458 2
14 3 3 -30.467 56.9984 1
14 3 3 6.42137 49.2881 2
15 -3 3 751.646 102.605 2
15 -3 3 750.437 88.3757 1
15 3 3 718.534 99.729 1
15 3 3 695.173 96.0164 2
17 -4 -3 -94.629 97.0554 2
-17 -4 3 -12.776 25.5132 3
-16 -4 3 121.962 24.4901 3
16 -4 -3 190.767 85.4129 2
-15 -4 3 43.2303 19.7973 3
15 -4 -3 182.01 67.1393 2
15 4 -3 -16.794 84.2065 1
14 -4 -3 863.565 100.13 2
-14 -4 3 797.834 48.6637 3
14 4 -3 802.52 95.3761 1
13 -4 -3 257.376 48.5768 2
-13 -4 3 247.09 32.4323 3
-13 4 3 198.077 28.3125 1
13 4 -3 274.139 58.5329 1
-12 -4 3 568.552 39.0593 3
12 -4 -3 563.895 66.3814 2
-12 -4 3 507.871 67.2378 1
-12 4 3 502.378 42.1107 1
12 4 -3 628.26 81.8627 1
11 -4 -3 -21.493 26.8205 2
-11 -4 3 13.6709 29.5417 1
-11 -4 3 2.34414 13.2485 3
-11 4 3 -34.453 17.3427 1
11 4 -3 8.7761 34.0584 1
-10 -4 3 24.5657 26.9762 1
-10 -4 3 16.2167 14.3791 3
10 -4 -3 21.7365 22.7799 2
10 4 -3 4.96175 31.5676 1
-10 4 3 42.7452 18.9866 1
-9 -4 3 71.4193 24.654 1
9 -4 -3 89.9507 22.2765 2
-9 -4 3 101.51 19.4412 3
-9 4 3 84.0942 18.7266 1
9 4 -3 94.4937 30.9638 1
-8 -4 3 2676.46 85.5984 3
8 -4 -3 2683.34 93.2811 2
-8 -4 3 2677.34 103.449 1
8 4 -3 2552.94 114.824 1
-8 4 3 2607.75 83.9048 1
-7 -4 3 231.698 23.1906 3
7 -4 -3 205.249 25.5494 2
-7 -4 3 260.614 34.6332 1
7 4 -3 201.45 38.1449 1
-7 4 3 278.213 29.2957 1
-6 -4 3 1247.23 60.8313 1
6 -4 -3 1272.05 51.1487 2
-6 4 3 1262.5 53.096 1
6 4 -3 1238.28 71.5794 1
-5 -4 3 24.198 15.9171 1
-5 -4 3 18.2765 9.16398 3
5 -4 -3 20.0514 11.0503 2
5 4 -3 24.8586 21.1339 1
-5 4 3 37.9005 14.0036 2
-5 4 3 15.3478 13.9865 1
4 -4 -3 16.39 9.01383 2
-4 -4 3 14.6784 8.60655 3
-4 -4 3 10.7912 10.2883 1
4 4 -3 8.29443 19.556 1
4 4 -3 31.0655 13.7722 2
-4 4 3 27.103 12.0024 2
-3 -4 3 142.639 16.334 3
-3 -4 3 142.95 21.8675 1
-3 4 3 186.302 19.863 2
3 4 -3 187.924 27.0297 2
3 4 -3 155.9 26.1479 1
-2 -4 3 2021.59 69.3089 1
-2 -4 3 2026.29 65.2643 3
2 4 -3 2008.62 77.688 2
-2 4 3 2068.25 64.5644 2
2 4 -3 2015.89 76.5369 1
-1 -4 3 827.46 35.3723 3
1 -4 -3 718.597 34.6084 3
-1 -4 3 835.569 36.4904 1
1 4 -3 893.897 47.5797 2
-1 4 3 800.681 34.8529 2
1 4 -3 806.42 43.3256 1
0 -4 3 1703.11 59.1195 3
0 -4 3 1794.73 56.9399 1
0 -4 -3 1710.36 58.8761 3
0 4 -3 1788.02 63.7399 1
0 4 3 1755.76 58.272 2
0 4 -3 1851.01 73.0563 2
1 -4 3 49.3129 14.7772 2
1 -4 3 67.5315 14.6131 3
-1 -4 -3 49.7812 14.4306 3
-1 4 -3 66.5746 14.5211 1
1 4 3 55.3782 13.2297 2
-1 4 -3 55.2761 16.3116 2
2 -4 3 16.0302 12.3401 2
-2 -4 -3 29.8008 11.2516 3
-2 4 -3 32.9181 16.7269 2
-2 4 -3 25.4661 10.1506 1
3 -4 3 180.58 25.5886 2
-3 -4 -3 157.997 16.3089 3
-3 4 -3 157.691 25.1476 2
3 4 3 179.807 26.334 1
-4 -4 -3 2810.87 80.8428 3
4 -4 3 2597.01 96.97 2
4 4 3 2649.42 94.7617 1
-4 4 -3 2579.31 98.5086 2
5 -4 3 207.564 27.3286 2
-5 -4 -3 287.911 21.3438 3
-5 4 -3 244.018 33.8858 2
5 4 3 328.242 35.4625 1
-6 -4 -3 444.123 27.3061 3
6 -4 3 496.979 43.9006 2
-6 4 -3 455.01 44.6101 2
6 4 3 420.562 41.0442 1
7 -4 3 382.999 44.6642 2
-7 -4 -3 384.782 26.8494 3
-7 4 -3 362.996 42.544 2
7 4 3 370.163 43.9921 1
8 -4 3 -0.6851 21.8484 2
-8 -4 -3 10.2779 13.8378 3
-8 4 -3 -40.76 21.3906 2
8 4 3 -6.9837 21.5284 1
-9 -4 -3 51.9869 13.5014 3
9 4 3 91.9115 30.8184 1
-9 4 -3 96.5873 49.5497 2
10 -4 3 1452.03 89.5243 2
-10 -4 -3 1337.03 54.3257 3
10 4 3 1469.37 91.963 1
-10 4 -3 1310.87 79.4256 2
-11 -4 -3 189.885 23.9932 3
11 -4 3 125.52 40.0154 2
11 4 3 129.73 47.8505 1
12 -4 3 471.102 66.2021 2
-12 -4 -3 610.252 38.9301 3
12 4 3 591.643 71.7464 1
13 -4 3 -8.7581 54.5014 2
-13 -4 -3 29.0901 20.007 3
13 4 3 5.35804 52.6844 1
-14 -4 -3 29.4285 22.5039 3
14 -4 3 -18.908 63.2517 2
14 4 3 -112.74 66.33 1
-15 -4 -3 -15.053 23.1579 3
15 -4 3 149.595 81.9954 2
-16 -4 -3 427.738 49.2061 3
16 -5 -3 196.577 96.0569 2
-16 -5 3 176.236 37.904 3
15 -5 -3 214.415 77.4747 2
-15 -5 3 140.679 30.5071 3
14 -5 -3 -24.937 59.9128 2
-14 -5 3 9.05012 23.2441 3
-13 -5 3 -13.738 21.2269 3
13 -5 -3 38.6969 50.3805 2
13 5 -3 -70.031 67.2566 1
12 -5 -3 650.8 78.4692 2
-12 -5 3 567.72 44.141 3
12 5 -3 654.415 89.6498 1
11 -5 -3 426.176 51.0164 2
-11 -5 3 409.422 37.148 3
11 5 -3 379.617 72.8992 1
10 -5 -3 757.58 60.1434 2
10 5 -3 714.262 84.5985 1
9 -5 -3 424.569 45.2382 2
-9 -5 3 409.401 34.1955 3
9 5 -3 280.512 54.4832 1
8 -5 -3 113.549 24.1511 2
-8 -5 3 106.405 22.344 3
8 5 -3 63.6628 36.8364 1
7 -5 -3 115.79 21.9022 2
-7 -5 3 82.2373 18.7916 3
-7 5 3 102.234 20.4483 1
-6 -5 3 811.315 43.4334 3
6 -5 -3 819.454 42.1601 2
-6 -5 3 742.98 50.132 1
-6 5 3 772.498 44.764 1
6 5 -3 774.324 64.7208 1
-6 5 3 788.596 45.2028 2
5 -5 -3 699.245 35.8322 2
-5 -5 3 672.502 38.8671 3
-5 5 3 736.308 41.5645 1
-5 5 3 628.106 39.7416 2
5 5 -3 690.987 50.6427 2
5 5 -3 612.051 56.9197 1
-4 -5 3 1600.51 62.3191 3
4 5 -3 1698.33 81.6264 1
-4 5 3 1710.04 64.4226 2
4 5 -3 1737.59 78.1278 2
-3 -5 3 495.576 33.1775 3
3 5 -3 483.638 43.5537 2
-3 5 3 503.275 35.3106 2
3 5 -3 469.483 45.3337 1
-2 -5 3 229.222 26.1642 3
2 5 -3 202.851 30.9193 2
-2 5 3 216.393 25.3615 2
2 5 -3 301.713 38.1282 1
1 -5 -3 -4.4129 15.5635 3
-1 -5 3 19.5791 14.8258 3
1 5 -3 -2.8442 18.5521 1
-1 5 3 0.8047 14.4539 2
1 5 -3 -25.954 16.1107 2
0 -5 3 428.12 48.9789 3
0 -5 -3 394.3 31.0729 3
0 5 3 469.62 32.5781 2
0 5 3 416.541 34.3763 1
0 5 -3 423.873 42.1087 2
0 5 -3 454.317 37.8955 1
1 -5 3 1142.26 56.3993 3
-1 -5 -3 1031.88 53.9839 3
-1 5 -3 1143.07 50.6441 1
-1 5 -3 1296.24 66.5002 2
1 5 3 1223.91 55.9677 1
1 5 3 1213.96 51.1421 2
2 -5 3 1930.18 77.2289 2
2 5 3 1780.56 68.6018 2
-2 5 -3 1906.28 82.8311 2
-2 5 -3 1831.18 61.1175 1
2 5 3 1873.27 75.4275 1
-3 -5 -3 680.315 38.4788 3
3 -5 3 766.13 48.5634 2
3 5 3 634.81 46.0103 1
-3 5 -3 682.467 52.3043 2
4 -5 3 225.577 31.4236 2
-4 -5 -3 211.384 25.9898 3
-4 5 -3 204.377 31.5351 2
4 5 3 177.179 30.7922 1
-5 -5 -3 10.1647 13.3181 3
5 -5 3 -32.839 18.923 2
-5 5 -3 3.13967 23.4181 2
-6 -5 -3 673.539 38.1883 3
6 -5 3 653.529 57.5468 2
6 5 3 682.001 56.48 1
-6 5 -3 663.306 58.5264 2
-7 -5 -3 480.024 34.4268 3
7 -5 3 527.589 55.9651 2
-7 5 -3 588.277 56.9983 2
7 5 3 527.118 56.0398 1
-8 -5 -3 1084.21 50.8639 3
8 -5 3 1193.14 78.1319 2
-8 5 -3 1220.2 77.4812 2
8 5 3 1192.11 78.6615 1
-9 -5 -3 578.44 38.6035 3
9 -5 3 582.808 71.9193 2
-9 5 -3 579.461 64.9419 2
9 5 3 653.319 74.1347 1
10 -5 3 183.235 49.8415 2
-10 -5 -3 136.417 22.2735 3
-10 5 -3 148.349 42.0577 2
10 5 3 -5.7664 42.3267 1
11 -5 3 12.3018 48.2948 2
-11 -5 -3 3.18365 18.0778 3
11 5 3 48.7577 55.5446 1
-12 -5 -3 180.046 33.3714 3
12 -5 3 121.791 60.3999 2
12 5 3 72.1353 64.6258 1
-13 -5 -3 200.958 29.8973 3
13 -5 3 272.14 80.1462 2
13 5 3 402.606 93.0464 1
-14 -5 -3 676.052 55.8104 3
14 -5 3 579.042 97.3395 2
-15 -5 -3 158.531 34.3473 3
14 -6 -3 -11.339 77.2282 2
-14 -6 3 -17.62 25.5984 3
-13 -6 3 880.277 60.0104 3
13 -6 -3 834.603 87.3641 2
12 -6 -3 -17.865 52.7671 2
-12 -6 3 -35.511 19.4392 3
12 6 -3 -2.8643 88.1613 1
11 -6 -3 144.982 48.5929 2
11 6 -3 157.834 72.6359 1
10 -6 -3 21.2574 37.0915 2
-10 -6 3 -18.09 20.8236 3
10 6 -3 116.762 62.1428 1
-9 -6 3 867.994 53.8469 3
9 -6 -3 956.316 63.3725 2
9 6 -3 933.478 102.425 1
8 -6 -3 76.0797 24.436 2
-8 -6 3 78.2903 24.632 3
8 6 -3 68.0189 42.5638 1
-7 -6 3 1365.38 63.7597 3
7 -6 -3 1388 64.5723 2
7 6 -3 1398.75 96.4048 1
-7 6 3 1541.88 71.2093 2
7 6 -3 1465.99 83.5424 2
-6 -6 3 91.0938 23.3196 3
6 -6 -3 92.7512 20.9296 2
-6 6 3 58.266 25.8996 2
-6 6 3 67.1586 23.8491 1
6 6 -3 71.5025 32.4432 2
6 6 -3 14.8647 34.5526 1
-5 -6 3 -18.495 15.9716 3
-5 6 3 -14.097 15.7225 1
-5 6 3 -6.1165 22.0801 2
5 6 -3 -32.521 27.7703 1
5 6 -3 47.3777 26.746 2
-5 6 3 23.1143 23.451 1
-4 -6 3 87.9982 24.0306 3
4 6 -3 70.9438 27.6668 2
-4 6 3 41.9463 18.5274 1
4 6 -3 102.332 31.3489 1
-4 6 3 19.7303 23.2169 2
-3 -6 3 816.976 49.1132 3
-3 6 3 987.722 53.0927 2
3 6 -3 938.993 65.3633 1
3 6 -3 827.63 63.981 2
-3 6 3 862.558 47.0972 1
-2 -6 3 19.9388 17.9257 3
-2 6 3 27.7162 21.465 2
-2 6 3 49.1035 19.311 1
2 6 -3 64.3586 26.0534 2
2 6 -3 33.688 24.8834 1
1 -6 -3 2338.23 86.1901 3
-1 6 3 2436.66 88.3033 1
-1 6 3 2347.93 86.1677 2
1 6 -3 2390.23 94.1441 1
1 6 -3 2347.94 100.734 2
0 -6 3 12.7404 17.3283 3
0 -6 -3 33.9092 17.9793 3
0 6 -3 33.5278 27.1874 2
0 6 3 41.6389 20.8099 2
0 6 3 -21.091 18.4922 1
0 6 -3 33.1585 24.4763 1
1 -6 3 194.704 26.5995 3
-1 -6 -3 299.178 31.8228 3
-1 6 -3 270.585 31.121 1
1 6 3 265.662 34.5939 1
1 6 3 308.052 37.0747 2
-1 6 -3 237.989 35.772 2
-2 -6 -3 18.7243 16.451 3
2 6 3 17.6143 22.6066 1
2 6 3 -8.3422 19.2511 2
-2 6 -3 27.3481 18.4377 1
-2 6 -3 48.1521 27.7081 2
3 -6 3 1264.15 66.6665 2
-3 -6 -3 1134.43 54.362 3
3 6 3 1119.49 60.7687 2
-3 6 -3 1180.83 75.0537 2
3 6 3 1235.58 69.4986 1
-4 -6 -3 93.7398 20.9121 3
4 -6 3 119.859 29.926 2
-4 6 -3 133.429 31.8848 2
4 6 3 132.909 27.4604 2
4 6 3 129.719 32.4919 1
-5 -6 -3 1924.37 74.5866 3
5 6 3 1880.29 93.3393 1
-6 -6 -3 11.5415 17.185 3
6 -6 3 48.9522 29.3236 2
-6 6 -3 -21.527 32.4295 2
6 6 3 24.4625 33.1862 1
7 -6 3 412.483 49.122 2
-7 -6 -3 395.405 37.2531 3
-7 6 -3 536.246 61.1828 2
7 6 3 457.351 57.8939 1
8 -6 3 -23.598 37.3175 2
-8 -6 -3 20.3813 21.0644 3
8 6 3 41.7262 46.0587 1
-8 6 -3 22.0109 38.8154 2
9 -6 3 442.422 65.0888 2
-9 -6 -3 442.578 44.2574 3
9 6 3 591.985 79.4459 1
-9 6 -3 565.835 67.2609 2
10 -6 3 29.2686 56.2468 2
-10 -6 -3 28.2627 27.8459 3
-10 6 -3 90.9813 50.9197 2
10 6 3 43.828 64.7496 1
11 -6 3 976.595 98.2306 2
-11 -6 -3 1154.16 65.2395 3
-11 6 -3 1087.82 110.104 2
11 6 3 866.744 103.887 1
-12 -6 -3 92.5884 32.4594 3
12 -6 3 175.801 74.4241 2
-13 -6 -3 148.406 36.3335 3
13 -6 3 139.993 89.1974 2
-14 -6 -3 -31.54 31.5114 3
-12 -7 3 262.568 38.785 3
-11 -7 3 26.9994 30.3249 3
11 -7 -3 121.859 52.388 2
-10 -7 3 851.726 63.662 3
10 -7 -3 872.483 79.2447 2
10 7 -3 801.017 118.656 1
10 7 -3 773.24 91.7719 2
9 -7 -3 138.569 36.5187 2
-9 -7 3 89.0111 29.5273 3
9 7 -3 52.2002 58.9994 2
9 7 -3 169.921 83.2068 1
8 -7 -3 145.979 32.6224 2
-8 -7 3 96.093 28.3372 3
8 7 -3 203.021 70.8105 1
8 7 -3 188.108 52.3726 2
-7 -7 3 3.46869 24.6172 3
7 7 -3 87.2033 55.5672 1
7 7 -3 -27.237 40.8787 2
-7 7 3 -36.699 32.6891 2
-6 -7 3 431.997 46.1984 3
6 7 -3 446.482 65.7792 1
6 7 -3 413.775 56.656 2
-6 7 3 445.213 57.4284 2
-5 -7 3 151.881 29.6451 3
5 7 -3 140.664 45.4215 1
-5 7 3 146.379 33.1385 1
-5 7 3 177.127 34.8708 2
5 7 -3 128.578 40.6064 2
-5 7 3 137.335 28.0062 1
-4 -7 3 1449.97 71.633 3
-4 7 3 1527.09 77.0659 2
-4 7 3 1439.4 65.8298 1
4 7 -3 1471.47 92.1505 2
4 7 -3 1206.53 95.624 1
-3 -7 3 5.46896 24.2935 3
3 7 -3 3.15711 36.2551 2
3 7 -3 32.0348 41.5265 1
-3 7 3 1.16093 25.8205 1
-3 7 3 36.0497 29.5788 2
-2 -7 3 235.378 33.7331 3
-2 7 3 283.36 40.6167 2
-2 7 3 277.384 38.1311 1
2 7 -3 299.937 46.5142 2
2 7 -3 339.956 49.5572 1
-1 -7 3 27.0474 25.8295 3
1 7 -3 28.3764 32.9955 2
1 7 -3 -8.1957 34.7799 1
-1 7 3 4.31211 29.2924 2
0 -7 3 524.217 49.8682 3
0 -7 -3 518.662 48.0527 3
0 7 -3 597.282 65.9148 2
0 7 3 564.012 57.1816 1
0 7 -3 639.982 61.9902 1
0 7 3 611.273 57.4965 2
-1 -7 -3 142.459 32.526 3
1 -7 3 142.496 29.3482 3
-1 7 -3 122.528 37.4375 2
1 7 3 165.433 33.988 2
1 7 3 156.95 35.5422 1
-1 7 -3 122.699 33.6573 1
-2 -7 -3 1247.49 63.7128 3
2 7 3 1184.16 72.6535 2
2 7 3 1186.43 80.1536 1
-2 7 -3 1256.74 83.4702 2
-3 -7 -3 93.735 22.25 3
3 7 3 63.8217 32.4028 2
-3 7 -3 102.699 44.2335 2
3 7 3 48.4069 37.3315 1
-4 -7 -3 147.732 27.3404 3
4 7 3 144.823 39.7232 2
-4 7 -3 159.62 44.6081 2
4 7 3 111.468 40.6199 1
5 -7 3 -4.1631 34.1689 2
-5 -7 -3 -3.7604 22.0942 3
5 7 3 -16.504 34.5258 2
5 7 3 66.3964 44.6366 1
-5 7 -3 -17.286 41.4564 2
-6 -7 -3 303.884 35.8529 3
6 -7 3 480.459 61.1265 2
6 7 3 328.591 66.6921 1
6 7 3 380.233 53.3241 2
-6 7 -3 353.482 64.1221 2
7 -7 3 110.438 52.0294 2
-7 -7 -3 89.9991 27.7844 3
-7 7 -3 110.812 51.7718 2
7 7 3 -22.391 56.7785 1
8 -7 3 1085.99 100.718 2
-8 -7 -3 971.854 62.9929 3
-8 7 -3 1011.01 103.888 2
8 7 3 1064.46 127.155 1
-9 -7 -3 56.0773 29.3707 3
9 -7 3 5.09422 59.7975 2
9 7 3 -104.04 66.6692 1
-9 7 -3 138.843 67.1284 2
10 -7 3 65.4629 67.2907 2
-10 -7 -3 198.343 37.8455 3
-10 7 -3 168.239 75.0809 2
11 -7 3 57.6034 81.3386 2
-11 -7 -3 38.9652 34.7785 3
-11 7 -3 47.3729 79.051 2
12 -7 3 250.877 112.039 2
-12 -7 -3 175.261 46.355 3
-10 -8 3 115.743 37.6703 3
-9 -8 3 169.076 43.0165 3
-8 -8 3 534.657 62.3911 3
8 8 -3 677.496 121.696 1
8 8 -3 556.777 99.3006 2
-7 -8 3 396.922 50.1835 3
7 8 -3 567.818 102.266 1
7 8 -3 490.194 84.015 2
-6 -8 3 322.149 50.2565 3
6 8 -3 302.126 70.9629 2
-6 8 3 279.369 51.35 2
6 8 -3 318.963 83.1811 1
-5 -8 3 87.4021 31.4473 3
5 8 -3 140.143 61.1225 2
5 8 -3 193.994 76.8732 1
-5 8 3 10.1596 41.9376 2
-4 -8 3 52.1694 31.0647 3
-4 8 3 -8.0462 36.0975 1
4 8 -3 -9.2426 55.805 2
-4 8 3 19.6976 41.4118 2
4 8 -3 6.37214 57.4165 1
-3 -8 3 287.253 41.1849 3
-3 8 3 374.089 55.4813 2
3 8 -3 289.422 64.4232 2
-3 8 3 348.473 49.519 1
3 8 -3 306.494 66.5032 1
-2 -8 3 569.298 60.3087 3
-2 8 3 688.153 78.3208 1
-2 8 3 632.177 77.964 2
2 8 -3 707.804 95.8735 1
2 8 -3 715.351 95.197 2
-1 -8 3 359.457 45.3542 3
-1 8 3 521.59 61.0175 1
-1 8 3 557.492 59.5931 2
1 8 -3 488.147 66.7368 2
1 8 -3 391.844 62.0363 1
0 -8 3 424.769 50.6114 3
0 -8 -3 360.435 45.3261 3
0 8 -3 436.341 66.1768 2
0 8 3 401.214 54.8432 2
0 8 -3 490.506 59.524 1
-1 -8 -3 11.7516 30.9906 3
-1 8 -3 92.6492 43.2628 1
1 8 3 103.962 47.7558 2
-1 8 -3 123.316 54.099 2
1 8 3 33.0084 51.0929 1
-2 -8 -3 9.38205 34.3772 3
-2 8 -3 45.7634 57.1186 2
2 8 3 -12.686 54.9561 1
2 8 3 16.0471 45.4846 2
-3 -8 -3 175.795 38.212 3
3 8 3 290.568 64.2485 1
-3 8 -3 125.925 62.6273 2
3 8 3 154.491 52.9111 2
-4 -8 -3 804.367 65.0099 3
4 8 3 850.969 93.0262 1
4 8 3 758.275 93.1269 2
-4 8 -3 755.697 85.2533 2
-5 -8 -3 447.074 54.6762 3
5 8 3 364.137 82.3114 1
-5 8 -3 462.983 77.9314 2
-6 -8 -3 213.634 46.0114 3
6 8 3 111.298 77.6881 1
-6 8 -3 279.334 76.7487 2
6 8 3 307.707 66.1195 2
-7 -8 -3 30.8487 34.4784 3
7 -8 3 99.9849 62.9357 2
-7 8 -3 -33.327 75.008 2
7 8 3 -55.112 63.4204 2
7 8 3 86.1222 83.751 1
-8 -8 -3 -2.9869 44.8733 3
8 -8 3 -14.448 65.3911 2
8 8 3 -79.595 72.2559 2
-8 8 -3 158.533 85.7027 2
9 -8 3 267.71 83.0447 2
-9 -8 -3 137.671 45.4505 3
9 8 3 -88.132 86.6924 2
-9 8 -3 -29.277 91.995 2
-5 -9 3 506.182 64.6625 3
5 9 -3 524.079 122.16 1
-4 -9 3 68.1837 43.5047 3
4 9 -3 0.48886 101.485 1
4 9 -3 134.257 97.2075 2
-3 -9 3 366.956 51.8162 3
3 9 -3 335.753 97.6291 1
3 9 -3 531.887 100.766 2
-2 -9 3 21.2229 41.743 3
2 9 -3 -1.1773 81.8442 2
-1 -9 3 -65.023 38.7764 3
1 9 -3 63.4781 81.0851 2
0 9 3 163.794 71.1863 1
0 9 -3 39.385 83.2447 2
-1 9 -3 828.716 107.461 2
1 9 3 822.509 98.6555 1
-2 -9 -3 126.951 42.8546 3
2 9 3 220.388 90.393 1
-2 9 -3 91.9481 95.0425 2
-3 -9 -3 464.208 57.2493 3
3 9 3 485.185 97.3627 1
-3 9 -3 384.63 100.11 2
-4 -9 -3 -66.007 44.5179 3
4 9 3 -122.33 97.0603 1
-4 9 -3 155.725 100.43 2
-5 -9 -3 -31.556 41.1172 3
18 0 -4 127.771 116.488 1
-18 0 4 144.467 73.2114 1
17 0 -4 -80.091 63.4084 2
17 0 -4 -157.46 82.4771 1
-17 0 4 14.8951 55.2347 1
-16 0 4 234.212 50.7258 1
16 0 -4 183.809 74.2047 1
16 0 -4 145.462 58.3283 2
15 0 -4 -34.038 42.2589 2
15 0 -4 -18.622 53.1267 1
-15 0 4 1.09613 36.4313 1
14 0 -4 1507.91 106.073 1
-14 0 4 1503.15 87.2585 1
13 0 -4 -83.613 37.1208 1
-13 0 4 9.11353 27.8213 1
12 0 -4 644.783 68.3086 1
-12 0 4 652.84 53.9686 1
11 0 -4 -9.5049 26.8341 1
-11 0 4 21.7351 20.4605 1
10 0 -4 840.153 63.7982 1
-10 0 4 943.591 55.5147 1
-9 0 4 3.74583 14.743 1
9 0 -4 -30.099 20.1922 1
-8 0 4 2194.7 83.5878 1
8 0 -4 2126.75 88.8057 1
7 0 -4 -31.795 13.5889 1
-7 0 4 12.2393 13.3353 1
6 0 -4 1041.87 52.3971 1
-6 0 4 1056.82 49.8002 1
5 0 -4 6.11875 11.8032 1
-5 0 4 3.15849 10.2844 1
4 0 -4 6762.52 185.18 1
-4 0 4 6835.17 184.722 1
3 0 -4 -9.0837 8.09374 1
-3 0 4 2.07254 8.56404 1
2 0 -4 1255.52 38.6403 2
-2 0 4 1205.7 46.3989 1
2 0 -4 1173.05 45.7593 1
-1 0 4 0.2701 3.50472 2
1 0 -4 1.62732 4.84665 2
0 0 4 788.273 28.9808 2
0 0 -4 787.514 29.5699 2
1 0 4 9.25369 5.72462 2
-1 0 -4 6.49452 5.7383 2
2 0 4 1649.66 55.3894 2
-2 0 -4 1656.77 55.0121 2
3 0 4 5.09566 8.7742 2
-3 0 -4 -8.7432 6.13527 2
4 0 4 8007.08 215.048 2
-4 0 -4 8109.54 212.108 2
5 0 4 6.57983 8.35303 2
6 0 4 1885.3 63.9831 1
6 0 4 1853.6 73.3693 2
7 0 4 7.7133 11.8767 2
7 0 4 4.77354 10.8218 1
8 0 4 546.484 43.5479 2
8 0 4 606.736 37.5485 1
9 0 4 -21.933 14.837 1
9 0 4 6.3349 18.1054 2
10 0 4 2694.38 100.892 1
10 0 4 2638.93 113.413 2
11 0 4 18.3082 24.2033 2
11 0 4 47.5138 25.5436 1
12 0 4 719.721 61.9894 1
12 0 4 763.586 71.2833 2
13 0 4 -11.704 36.7607 1
13 0 4 -1.3912 33.9787 2
14 0 4 23.7783 45.7395 1
14 0 4 63.6477 44.9792 2
15 0 4 -14.575 50.3576 2
15 0 4 -14.64 48.5112 1
16 0 4 1051 129.426 1
16 0 4 765.278 101.82 2
17 0 4 1.24311 87.1718 1
18 0 4 346.276 133.339 1
19 -1 -4 67.0572 145.543 1
18 -1 -4 -56.925 112.083 1
18 1 -4 179.901 134.629 1
17 -1 -4 469.399 97.1824 1
-17 -1 4 574.451 78.5102 1
17 -1 -4 492.268 84.7671 2
-17 1 4 457.24 64.5643 1
17 1 -4 498.76 110.28 1
17 1 -4 561.134 86.7434 2
-16 -1 4 219.819 54.4198 1
16 -1 -4 197.856 68.3576 1
16 -1 -4 235.884 62.8311 2
-16 1 4 194.562 51.2954 1
16 1 -4 141.746 75.5888 1
15 -1 -4 251.922 66.9106 1
15 -1 -4 222.537 49.5477 2
-15 -1 4 127.725 43.7897 1
-15 1 4 155.823 42.7997 1
15 1 -4 170.366 68.1707 1
14 -1 -4 -70.539 32.2492 2
14 -1 -4 47.2473 50.4556 1
-14 -1 4 42.7225 31.5263 1
14 1 -4 -56.152 47.6841 1
-14 1 4 -34.183 31.3157 1
13 -1 -4 661.864 61.1091 2
13 -1 -4 675.127 72.5092 1
-13 -1 4 659.627 62.465 1
-13 1 4 659.835 57.8531 1
13 1 -4 699.898 78.7125 1
12 -1 -4 366.221 50.0743 1
12 -1 -4 321.295 42.3703 2
12 1 -4 335.989 57.6647 1
-12 1 4 391.002 46.0167 1
-11 -1 4 1799.64 82.101 1
11 -1 -4 1801.81 79.5253 2
11 -1 -4 1824.78 91.9518 1
-11 1 4 1677.18 76.7579 1
11 1 -4 1750.43 95.0241 1
10 -1 -4 526.198 52.3657 1
-10 -1 4 573.314 46.0831 1
-10 1 4 516.285 42.4014 1
10 1 -4 491.498 53.817 1
-9 -1 4 449.988 40.4952 1
9 -1 -4 390.919 42.5105 1
-9 1 4 429.717 36.572 1
9 1 -4 457.131 48.5144 1
8 -1 -4 13.8982 17.7111 1
-8 -1 4 7.47133 13.2785 1
-8 1 4 -3.2402 13.2545 1
8 1 -4 5.61224 15.485 1
7 -1 -4 380.469 33.4523 1
-7 -1 4 401.45 32.9808 1
-7 1 4 374.19 31.5339 1
7 1 -4 401.907 37.1341 1
6 -1 -4 853.617 44.4349 1
-6 -1 4 814.924 45.0115 1
-6 1 4 789.411 43.5727 1
5 -1 -4 6338.35 178.698 1
-5 -1 4 6389.89 182.117 1
-5 1 4 6795.96 180.592 1
5 1 -4 6558.78 185.903 1
-4 -1 4 504.658 30.9811 1
4 1 -4 529.447 34.7832 1
-4 1 4 500.337 30.9367 1
-3 -1 4 2755.32 87.7478 1
-3 1 4 2689.64 85.0865 1
3 1 -4 2783.39 89.2135 1
-2 -1 4 47.5204 5.55605 3
-2 -1 4 40.8117 10.8551 1
2 1 -4 55.4767 11.181 2
2 1 -4 20.2741 10.0313 1
-1 -1 4 412.189 13.9774 3
-1 -1 4 396.327 21.7383 2
1 -1 -4 408.38 14.1488 2
-1 -1 4 360.505 23.2995 1
-1 1 4 398.912 14.1903 3
1 1 -4 417.829 13.2552 3
1 1 -4 403.524 22.4312 2
1 1 -4 403.574 24.4193 1
0 -1 4 110.801 13.934 1
0 -1 -4 119.48 8.87713 2
0 -1 4 139.475 14.4286 2
0 -1 4 114.342 7.85659 3
0 -1 -4 125.655 7.01547 3
0 1 4 120.06 6.34092 3
0 1 4 111.22 8.89108 2
0 1 -4 106.318 13.4209 2
0 1 -4 138.431 7.3537 3
-1 -1 -4 4328.28 104.063 3
1 1 4 4294.71 112.266 2
-1 1 -4 4135.74 119.368 2
-1 1 -4 4444.65 105.691 3
2 -1 4 688.841 33.7675 2
2 1 4 725.177 30.0563 2
3 -1 4 2468.41 81.8456 2
-3 1 -4 2462.15 81.2699 2
3 1 4 2448.19 76.4081 2
4 -1 4 967.833 46.396 2
4 1 4 1008.05 43.7735 2
-4 1 -4 1026.08 45.8445 2
5 -1 4 166.615 23.5749 2
-5 1 -4 182.861 24.5639 2
5 1 4 140.167 19.3678 2
6 -1 4 770.936 46.0827 2
6 -1 4 754.86 32.9273 1
-6 1 -4 701.643 42.7194 2
6 1 4 797.531 40.2297 1
6 1 4 716.472 42.0965 2
7 -1 4 3128.54 111.086 2
7 -1 4 3068.32 92.2908 1
7 1 4 3095.31 100.386 1
7 1 4 2878.56 103.95 2
8 -1 4 755.699 39.4906 1
8 -1 4 776.743 53.0437 2
8 1 4 632.74 45.9338 2
8 1 4 770.809 46.1165 1
9 -1 4 691.044 42.9843 1
9 -1 4 728.107 55.3395 2
9 1 4 699.212 47.4725 1
9 1 4 767.925 53.9507 2
10 -1 4 97.0892 30.0882 2
10 -1 4 76.1906 20.6179 1
10 1 4 52.0418 27.1384 2
10 1 4 84.3627 24.2161 1
11 -1 4 85.5014 25.1035 1
11 -1 4 34.818 32.1717 2
11 1 4 37.7537 27.7773 2
11 1 4 41.765 28.8351 1
12 -1 4 131.804 34.4206 1
12 -1 4 118.041 40.9648 2
12 1 4 147.819 41.1318 1
12 1 4 108.059 41.2316 2
13 -1 4 1332.5 87.6021 1
13 -1 4 1238.72 100.571 2
13 1 4 1278.8 88.949 1
13 1 4 1373.87 97.2215 2
14 -1 4 229.559 59.0984 2
14 -1 4 250.516 53.1729 1
14 1 4 116.381 57.5525 2
14 1 4 191.761 50.4586 1
15 -1 4 535.771 84.1003 2
15 -1 4 542.583 70.0114 1
15 1 4 410.811 73.7431 1
15 1 4 446.109 69.4332 2
16 -1 4 -26.897 65.6244 1
16 -1 4 82.0846 83.6502 2
16 1 4 -56.483 73.963 2
16 1 4 -58.235 71.024 1
17 -1 4 28.9023 88.4104 1
17 1 4 224.053 103.251 1
18 -2 -4 138.12 115.029 1
18 -2 -4 312.117 112.248 2
17 -2 -4 31.4761 89.0901 1
-17 -2 4 -49.005 63.3794 1
-17 2 4 -33.666 51.0604 1
17 2 -4 -31.716 99.2064 1
16 -2 -4 288.251 75.3868 1
16 -2 -4 205.037 63.6723 2
16 2 -4 77.6745 90.1307 1
-16 2 4 223.154 47.014 1
15 -2 -4 970.415 101.571 1
-15 -2 4 812.199 90.1235 1
15 -2 -4 762.28 95.3825 2
15 2 -4 1030.29 121.423 1
-15 2 4 1016.85 76.554 1
14 -2 -4 364.039 55.0173 2
14 -2 -4 342.981 57.2561 1
-14 -2 4 289.142 53.4169 1
-14 2 4 371.212 45.661 1
14 2 -4 389.66 74.7913 1
13 -2 -4 532.077 60.7248 1
-13 -2 4 533.107 63.4754 1
13 -2 -4 460.772 58.4335 2
-13 2 4 431.336 51.4865 1
13 2 -4 366.869 58.3867 1
12 -2 -4 229.708 39.054 2
12 -2 -4 242.501 41.3448 1
-12 -2 4 210.928 36.6389 1
-12 2 4 249.731 37.0792 1
12 2 -4 222.164 47.4949 1
11 -2 -4 36.2796 27.7735 1
-11 -2 4 -25.204 27.2198 1
11 -2 -4 20.4865 22.7926 2
-11 2 4 10.5614 22.5591 1
11 2 -4 22.7214 33.2629 1
10 -2 -4 38.4867 26.2224 1
-10 -2 4 58.1262 22.2302 1
10 -2 -4 18.1198 19.4639 2
-10 2 4 72.2201 23.5383 1
10 2 -4 39.6543 30.0344 1
9 -2 -4 1762.93 75.271 1
-9 -2 4 1698.13 75.8092 1
9 -2 -4 1566.18 67.4983 2
-9 2 4 1575.62 68.8838 1
9 2 -4 1667.42 86.7516 1
-8 -2 4 884.534 52.7622 1
8 -2 -4 920.845 45.3217 2
8 -2 -4 923.678 51.1366 1
-8 2 4 929.449 49.0578 1
8 2 -4 876.208 60.9968 1
-7 -2 4 1981.44 80.9572 1
7 -2 -4 2089.38 71.3892 2
7 2 -4 2208.78 91.9167 1
-7 2 4 2006.97 76.5221 1
6 -2 -4 202.947 19.1979 2
-6 -2 4 131.591 21.4019 1
-6 2 4 205.41 26.2006 1
6 2 -4 201.275 32.6556 1
-5 -2 4 18.1041 9.94673 1
5 2 -4 20.8613 15.948 1
-5 2 4 -7.6597 9.7505 1
-4 -2 4 33.5119 7.02743 3
-4 -2 4 37.5763 11.9439 1
4 -2 -4 10.4695 6.2596 2
-4 2 4 22.3668 11.1216 1
4 2 -4 21.7769 12.8039 1
-3 -2 4 2508.97 67.4502 3
-3 -2 4 2463.32 82.9539 1
3 2 -4 2493.68 85.3729 1
-2 -2 4 1888.51 53.0465 3
-2 -2 4 1885.28 65.2904 1
2 2 -4 1933.73 51.6584 3
2 2 -4 1893.02 67.5708 1
2 2 -4 1905.07 65.8888 2
-2 2 4 1889.2 54.2006 3
-1 -2 4 2326.1 73.7494 1
-1 -2 4 2443.38 75.4352 2
-1 -2 4 2362.86 63.6151 3
1 2 -4 2310.69 75.3557 1
-1 2 4 2340.67 62.8649 3
1 2 -4 2380.57 62.169 3
1 2 -4 2292.07 76.3997 2
0 -2 4 210.216 12.8828 3
0 -2 -4 201.419 12.1278 3
0 -2 4 188.992 16.8223 1
0 -2 4 180.487 18.5391 2
0 2 -4 180.547 20.8469 2
0 2 -4 236.312 12.899 3
0 2 -4 199.945 18.5945 1
0 2 4 234.572 12.4295 3
1 -2 4 150.777 13.8706 1
-1 -2 -4 126.556 9.87831 3
1 -2 4 117.625 16.8269 2
1 -2 4 127.458 11.423 3
1 2 4 163.488 10.3287 3
-1 2 -4 137.685 12.1593 3
-1 2 -4 151.735 21.2432 2
-2 -2 -4 701.54 23.8858 3
2 -2 4 654.847 27.0108 1
2 -2 4 733.904 36.9715 2
-2 2 -4 727.631 38.5815 2
-2 2 -4 698.488 26.8254 3
3 -2 4 2073.98 76.8194 2
3 -2 4 2107.6 60.3368 1
-3 -2 -4 2166.2 58.3547 3
-3 2 -4 2119.72 76.8571 2
-3 2 -4 2195.36 62.7527 3
4 -2 4 381.456 30.1928 2
-4 -2 -4 383.381 17.2497 3
-4 2 -4 383.299 32.0361 2
5 -2 4 1992.06 56.4436 1
5 -2 4 1954.47 78.4523 2
-5 2 -4 2030.6 77.9251 2
6 -2 4 291.128 18.611 1
6 -2 4 314.485 33.5294 2
-6 2 -4 290.587 32.1992 2
6 2 4 321.782 29.7912 1
7 -2 4 -5.0382 9.32693 1
7 -2 4 -0.9346 16.3002 2
7 2 4 23.2063 14.8582 1
-7 2 -4 -15.736 15.6481 2
8 -2 4 152.59 30.8573 2
8 -2 4 113.567 16.969 1
8 2 4 144.541 26.8484 1
-8 2 -4 88.8817 21.5148 2
9 -2 4 1121.1 50.086 1
9 -2 4 1068.17 67.1465 2
9 2 4 1085.83 61.1286 1
9 2 4 1045.59 62.4671 2
10 -2 4 240.772 30.3186 1
10 2 4 281.433 43.3991 1
11 -2 4 1213.98 64.1175 1
11 -2 4 1347.64 86.8888 2
11 2 4 1283.06 80.9258 2
11 2 4 1140.71 80.1732 1
12 -2 4 329.401 53.4695 2
12 -2 4 257.843 38.1205 1
12 2 4 212.594 44.1641 2
12 2 4 234.269 47.614 1
13 -2 4 101.972 47.3179 2
13 -2 4 50.9741 36.2499 1
13 2 4 92.852 46.5038 2
13 2 4 91.1602 46.3628 1
14 -2 4 46.3359 42.6319 1
14 -2 4 88.8527 57.2773 2
14 2 4 43.7766 53.0155 1
14 2 4 19.1311 52.4686 2
15 -2 4 396.671 64.5682 1
15 -2 4 542.303 85.7884 2
15 2 4 287.956 76.9813 1
15 2 4 378.296 72.0838 2
16 2 4 41.967 87.793 1
17 -3 -4 -16.209 80.1355 2
-16 -3 4 451.138 72.0498 1
16 -3 -4 642.297 90.02 2
16 3 -4 536.398 112.83 1
15 -3 -4 65.6231 58.1005 2
-15 -3 4 -81.395 46.4829 1
15 3 -4 -79.562 75.5477 1
-15 3 4 -2.2255 35.0624 1
14 -3 -4 22.0907 43.4116 2
-14 -3 4 28.9691 43.4229 1
-14 3 4 -2.2154 31.8943 1
14 3 -4 -138.74 52.0696 1
-13 -3 4 38.3834 31.5696 1
13 -3 -4 66.1678 40.6156 2
-13 3 4 -27.074 26.1209 1
13 3 -4 -44.657 47.1067 1
12 -3 -4 923.815 67.0268 2
-12 -3 4 1049.59 74.3884 1
-12 3 4 985.454 59.5448 1
12 3 -4 971.514 93.2683 1
-11 -3 4 13.5742 27.5432 1
11 -3 -4 27.4128 24.3012 2
11 3 -4 40.0045 38.232 1
-11 3 4 74.9375 23.1815 1
-10 -3 4 1359.02 72.9625 1
10 -3 -4 1403.6 67.4817 2
-10 3 4 1435.59 66.0683 1
10 3 -4 1325.91 88.1494 1
-9 -3 4 10.0617 20.0541 1
9 -3 -4 -4.4734 16.2475 2
-9 3 4 -3.074 16.6742 1
9 3 -4 -11.127 26.621 1
-8 -3 4 8.92285 14.9383 1
8 -3 -4 10.2585 14.3167 2
-8 3 4 3.55658 15.8326 1
8 3 -4 19.7425 22.3414 1
-7 -3 4 19.0103 9.32083 3
7 -3 -4 31.3417 12.4391 2
-7 -3 4 37.3369 17.9151 1
7 3 -4 7.75391 20.4264 1
-7 3 4 -16.571 13.667 1
-6 -3 4 2158.17 83.0947 1
-6 -3 4 2201.09 65.9013 3
6 -3 -4 2087 69.813 2
-6 3 4 2139.56 77.5477 1
6 3 -4 2167.86 92.3612 1
-5 -3 4 67.4105 11.106 3
5 -3 -4 65.2421 10.4611 2
-5 -3 4 43.6897 15.976 1
-5 3 4 31.5124 14.0308 1
5 3 -4 23.733 16.9356 1
-4 -3 4 4434.36 115.773 3
4 -3 -4 4347.39 113.265 2
-4 -3 4 4475.09 133.234 1
4 3 -4 4281.57 137.969 1
-4 3 4 4227.17 119.293 3
-3 -3 4 2.28029 9.85746 1
3 -3 -4 9.7721 4.32432 2
-3 -3 4 -7.4126 6.13302 3
-3 3 4 -0.6423 5.36773 2
3 3 -4 -10.558 9.85551 2
3 3 -4 -1.5517 12.1531 1
-3 3 4 10.4066 13.9307 3
-2 -3 4 17.5214 10.5433 1
-2 -3 4 11.6836 7.12719 3
2 3 -4 7.93083 7.35885 3
2 3 -4 21.0205 12.6295 1
2 3 -4 24.3391 12.448 2
-2 3 4 11.1233 11.6212 3
-1 -3 4 122.039 13.6704 3
1 -3 -4 107.525 14.239 3
-1 -3 4 122.692 16.5229 1
1 3 -4 126.887 13.6354 3
-1 3 4 96.6336 13.1201 3
1 3 -4 115.205 19.4987 1
1 3 -4 100.492 19.6758 2
-1 3 4 107.547 10.2631 2
0 -3 4 5986.99 166.56 2
0 -3 -4 5766.5 151.412 3
0 -3 4 5957.64 155.542 1
0 -3 4 5911.78 152.409 3
0 3 4 5838.29 148.367 3
0 3 -4 5930.67 149.393 3
0 3 -4 6035.6 169.773 2
0 3 -4 5864.9 159.09 1
1 -3 4 900.964 32.4461 1
-1 -3 -4 813.785 31.5295 3
1 -3 4 856.917 34.0904 3
1 -3 4 853.317 42.7162 2
-1 3 -4 875.128 35.3453 1
1 3 4 819.016 29.8845 3
-1 3 -4 886.203 33.0891 3
-1 3 -4 864.518 46.0853 2
2 -3 4 4273.14 129.794 2
-2 -3 -4 4347.24 111.256 3
2 -3 4 4029.18 107.814 1
2 3 4 4243.68 108.09 3
-2 3 -4 4196.74 131.14 2
-2 3 -4 4227.06 112.356 3
3 -3 4 0.4692 11.9761 2
-3 -3 -4 9.34983 6.41486 3
-3 3 -4 3.72692 12.8846 3
-3 3 -4 13.855 13.785 2
-4 -3 -4 112.291 12.6269 3
4 -3 4 109.309 21.7451 2
-4 3 -4 125.777 24.4767 2
5 -3 4 6.62873 14.1097 2
-5 -3 -4 21.8662 7.30223 3
-5 3 -4 18.9341 15.1759 2
5 3 4 -8.4549 12.8188 1
6 -3 4 1802.39 79.5462 2
-6 -3 -4 1747.43 56.1292 3
-6 3 -4 1779.65 77.7685 2
6 3 4 1828.22 75.0195 1
-7 -3 -4 -8.6779 7.43567 3
7 -3 4 15.731 19.2598 2
7 3 4 1.15556 16.2603 1
-7 3 -4 2.55273 18.5763 2
8 -3 4 2671.35 109.913 2
-8 -3 -4 2615.49 80.3372 3
-8 3 -4 2741.04 106.688 2
8 3 4 2630.49 103.356 1
9 -3 4 159.034 29.8058 2
-9 3 -4 168.572 33.2761 2
9 3 4 148.133 31.5119 1
10 -3 4 352.562 46.9014 2
10 3 4 325.01 44.8208 1
11 -3 4 28.6223 21.5959 1
11 -3 4 111.445 39.0132 2
11 3 4 31.59 35.8431 1
12 -3 4 785.76 90.0627 2
12 -3 4 694.752 55.6472 1
12 3 4 879.708 81.0922 2
12 3 4 702.292 85.0136 1
13 -3 4 -12.973 52.7191 2
13 -3 4 -32.942 31.5018 1
13 3 4 1.20114 51.0119 1
13 3 4 -32.156 47.9276 2
14 -3 4 1080.23 80.7379 1
14 -3 4 1198.88 127.589 2
14 3 4 1032.82 115.428 2
14 3 4 1317.63 121.235 1
15 -3 4 -3.9451 73.8299 2
15 -3 4 67.0152 51.7819 1
15 3 4 -61.892 79.1168 1
15 3 4 69.0499 71.9787 2
-17 -4 4 14.0555 24.3164 3
17 -4 -4 14.9813 98.1554 2
16 -4 -4 3.36612 78.3213 2
-16 -4 4 -20.246 21.7489 3
15 -4 -4 670.276 84.2054 2
-15 -4 4 737.814 49.069 3
-15 4 4 675.13 64.0483 1
15 4 -4 588.761 114.527 1
-14 -4 4 137.28 24.9227 3
-14 -4 4 296.427 60.2033 1
14 -4 -4 257.105 55.7575 2
-14 4 4 170.202 36.4719 1
14 4 -4 212.699 72.6117 1
13 -4 -4 710.606 77.4437 2
-13 -4 4 671.25 78.7993 1
-13 -4 4 595.899 42.4781 3
-13 4 4 638.27 53.8778 1
13 4 -4 668.134 97.3163 1
12 -4 -4 65.3155 34.974 2
-12 -4 4 69.0466 36.3277 1
-12 -4 4 42.0877 20.2061 3
12 4 -4 5.95666 52.1836 1
-12 4 4 111.372 26.8715 1
11 -4 -4 -65.311 25.5982 2
-11 -4 4 5.83705 29.049 1
-11 -4 4 -0.4354 14.2202 3
11 4 -4 -4.9187 43.5528 1
-11 4 4 -11.315 22.8638 1
-10 -4 4 87.3154 18.7981 3
-10 -4 4 132.478 31.4503 1
10 4 -4 148.723 39.5622 1
-10 4 4 132.406 24.7837 1
-9 -4 4 1398.22 73.7996 1
-9 -4 4 1376.04 55.8545 3
9 -4 -4 1349.38 62.0637 2
-9 4 4 1408.14 60.9223 1
9 4 -4 1284.01 87.4339 1
-8 -4 4 152.931 21.7436 3
-8 -4 4 193.536 33.5869 1
8 -4 -4 190.529 25.4752 2
-8 4 4 189.033 29.1943 1
8 4 -4 142.84 37.2461 1
7 -4 -4 1601.73 62.0239 2
-7 -4 4 1656.68 59.4179 3
-7 -4 4 1660.73 76.3223 1
7 4 -4 1635.42 87.7945 1
-7 4 4 1626.37 66.7849 1
-6 -4 4 307.738 34.2549 1
6 -4 -4 297.361 24.0945 2
-6 4 4 332.325 33.9988 1
6 4 -4 273.895 39.8029 1
-5 -4 4 47.9805 11.5915 3
5 -4 -4 49.9701 11.0811 2
-5 -4 4 61.0604 18.1541 1
-5 4 4 45.9974 17.1244 1
5 4 -4 32.7141 21.0517 1
4 -4 -4 122.645 13.4887 2
-4 -4 4 122.685 21.4465 1
-4 -4 4 109.825 15.9434 3
4 4 -4 114.476 24.5953 1
4 4 -4 96.6532 23.3743 2
-4 4 4 129.059 17.224 2
-3 -4 4 1720.63 57.4494 3
-3 -4 4 1717.12 66.3245 1
3 4 -4 1698.18 75.3052 1
-3 4 4 1754.9 54.6171 2
3 4 -4 1782.35 73.7315 2
-2 -4 4 683.666 31.6531 3
-2 -4 4 686.49 36.1845 1
-2 4 4 656.116 29.5668 2
2 4 -4 685.579 44.3137 1
2 4 -4 709.459 44.2209 2
-1 -4 4 1820.47 63.6042 1
-1 -4 4 1879.8 61.7848 3
1 -4 -4 1885.82 62.1643 3
1 4 -4 1821.37 70.7116 1
1 4 -4 1917.53 77.7346 2
-1 4 4 1879.81 58.0551 2
0 -4 4 292.344 22.8599 3
0 -4 -4 340.668 22.1081 3
0 -4 4 304.237 21.4557 1
0 4 -4 265.502 28.806 1
0 4 -4 259.141 33.0481 2
0 4 4 335.83 20.8215 2
1 -4 4 39.2741 8.16868 1
1 -4 4 37.4823 10.6293 3
-1 -4 -4 22.9966 9.05088 3
1 -4 4 32.081 14.2175 2
-1 4 -4 64.7093 20.8382 2
-1 4 -4 27.4682 14.1586 1
-2 -4 -4 90.2561 12.2292 3
2 -4 4 113.916 20.2839 2
-2 4 -4 74.1242 21.5738 2
3 -4 4 1621.89 69.6225 2
-3 -4 -4 1578.02 53.4706 3
-3 4 -4 1557.51 73.1637 2
4 -4 4 487.598 42.4759 2
-4 -4 -4 527.994 26.8361 3
4 4 4 498.39 38.8035 1
-4 4 -4 543.587 44.4282 2
5 -4 4 2117.25 87.9581 2
-5 -4 -4 2111.1 67.4157 3
5 4 4 2019.11 83.703 1
-5 4 -4 2180.27 90.7547 2
6 -4 4 91.4942 26.173 2
-6 -4 -4 51.2123 12.4268 3
-6 4 -4 86.0956 25.6023 2
6 4 4 82.0138 23.4739 1
-7 -4 -4 24.8015 11.5328 3
7 -4 4 26.1124 23.6808 2
-7 4 -4 42.2792 28.8118 2
8 -4 4 9.42097 27.5904 2
-8 -4 -4 44.6603 14.575 3
8 4 4 46.8043 25.7724 1
-8 4 -4 16.6522 32.0601 2
9 -4 4 774.824 67.3023 2
-9 -4 -4 781.197 40.4779 3
9 4 4 761.258 63.326 1
-9 4 -4 880.856 65.4365 2
-10 -4 -4 120.693 20.4933 3
10 -4 4 199.508 47.8777 2
10 4 4 204.187 40.4768 1
-10 4 -4 175.813 36.879 2
-11 -4 -4 1147.96 51.6718 3
11 -4 4 1157.46 94.3749 2
11 4 4 1106.86 91.7199 1
12 -4 4 144.908 54.7909 2
-12 -4 -4 109.413 21.5128 3
12 4 4 312.151 63.3625 1
13 -4 4 93.7578 60.9414 2
-13 -4 -4 28.1828 21.9807 3
13 4 4 108.208 59.6368 2
13 4 4 54.826 64.5989 1
14 -4 4 -155.84 67.6605 2
-14 -4 -4 16.5097 21.9029 3
14 4 4 71.7147 77.3767 1
14 4 4 66.0432 68.0114 2
-15 -4 -4 386.107 45.7431 3
-16 -4 -4 134.248 35.5231 3
16 -5 -4 176.936 98.4096 2
-16 -5 4 87.9829 30.8084 3
15 -5 -4 245.687 80.0767 2
14 -5 -4 -18.133 56.1998 2
-14 -5 4 -8.924 23.6423 3
13 -5 -4 290.491 55.9943 2
-13 -5 4 201.095 31.1569 3
13 5 -4 316.551 94.8858 1
-12 -5 4 321.552 37.1564 3
12 -5 -4 543.773 71.1524 2
12 5 -4 264.907 69.6326 1
-11 -5 4 858.936 80.8721 1
-11 -5 4 755.891 48.1396 3
11 -5 -4 692.632 68.8982 2
-11 5 4 769.785 46.7974 1
11 5 -4 875.47 104.238 1
-10 -5 4 807.627 47.8008 3
10 -5 -4 805.568 61.6526 2
-10 -5 4 876.624 73.507 1
10 5 -4 851.245 94.9567 1
-10 5 4 898.487 48.6772 1
-9 -5 4 263.111 41.7733 1
-9 -5 4 263.321 30.5354 3
9 -5 -4 304.08 40.8425 2
9 5 -4 302.947 53.9158 1
-9 5 4 265.617 30.8977 1
8 -5 -4 35.1481 19.7985 2
-8 -5 4 -7.1687 24.9763 1
-8 -5 4 25.4374 15.9654 3
-8 5 4 78.8212 24.8085 1
8 5 -4 92.6084 39.4108 1
-7 -5 4 257.531 29.8065 3
7 -5 -4 248.675 29.6366 2
7 5 -4 315.273 63.7115 1
-7 5 4 309.402 40.1571 1
-6 -5 4 520.587 43.9391 1
-6 -5 4 525.731 35.5191 3
6 -5 -4 533.041 31.2993 2
-6 5 4 493.455 41.6134 1
6 5 -4 537.386 60.0244 1
-5 -5 4 2036.89 83.443 1
-5 -5 4 2138.97 74.5694 3
5 -5 -4 2155.86 66.9964 2
-5 5 4 2007.57 77.6999 1
5 5 -4 2165.43 99.8292 1
5 5 -4 2139.65 91.0266 2
-5 5 4 2059.56 70.5803 2
-4 -5 4 674.458 38.58 3
-4 -5 4 724.259 44.574 1
4 5 -4 750.615 54.0314 2
-4 5 4 736.246 37.1981 2
4 5 -4 726.313 58.3777 1
-3 -5 4 240.633 26.8142 3
-3 -5 4 226.581 28.0633 1
3 5 -4 332.589 40.3993 2
-3 5 4 252.865 26.6005 2
3 5 -4 271.606 38.8202 1
-2 -5 4 127.668 23.5456 3
-2 -5 4 96.387 16.958 1
2 5 -4 113.77 26.7458 1
-2 5 4 117.128 20.0694 2
2 5 -4 103.96 25.4469 2
1 -5 -4 37.9692 19.4641 3
-1 -5 4 32.2624 14.7475 3
-1 5 4 58.5682 16.5333 2
1 5 -4 93.218 23.4867 1
1 5 -4 42.2833 25.1077 2
0 -5 -4 662.355 37.5326 3
0 -5 4 642.26 39.2879 3
0 5 -4 645.916 49.8692 2
0 5 4 653.299 36.9037 2
0 5 -4 648.322 43.7462 1
1 -5 4 1928.41 72.3759 3
-1 -5 -4 1892.76 74.9164 3
-1 5 -4 1969.97 87.4925 2
1 5 4 1981.14 68.5516 2
-1 5 -4 1950.37 70.2849 1
2 -5 4 1039.95 56.9438 2
-2 5 -4 1087.85 64.1027 2
-2 5 -4 980.356 41.5856 1
2 5 4 1080.04 55.595 1
2 5 4 1070.46 48.1445 2
3 -5 4 515.181 43.76 2
-3 -5 -4 540.542 34.0077 3
-3 5 -4 526.457 50.6461 2
3 5 4 456.875 42.347 1
4 -5 4 113.391 24.0809 2
-4 -5 -4 78.0806 18.8404 3
4 5 4 91.1847 26.0457 1
-4 5 -4 155.075 31.3863 2
5 -5 4 256.932 37.4835 2
-5 -5 -4 232.437 26.8333 3
5 5 4 276.408 42.6942 1
-5 5 -4 263.091 38.6176 2
-6 -5 -4 156.926 21.5882 3
6 -5 4 173.945 34.2013 2
-6 5 -4 146.801 34.8927 2
6 5 4 177.416 31.9711 1
7 -5 4 1339.45 81.0214 2
-7 -5 -4 1301.29 55.97 3
-7 5 -4 1292.11 79.5985 2
7 5 4 1420.79 80.166 1
8 -5 4 892.006 76.0685 2
-8 -5 -4 926.685 47.3659 3
-8 5 -4 877.244 70.6478 2
8 5 4 826.916 69.6995 1
-9 -5 -4 540.356 38.423 3
9 -5 4 477.908 63.1191 2
-9 5 -4 495.554 58.5899 2
9 5 4 522.401 68.5991 1
-10 -5 -4 52.228 19.5739 3
10 -5 4 78.6214 46.6772 2
-10 5 -4 -10.099 39.4155 2
10 5 4 104.678 50.2206 1
11 -5 4 216.735 59.8541 2
-11 -5 -4 155.284 23.984 3
-11 5 -4 189.746 54.7712 2
11 5 4 169.859 65.0145 1
12 -5 4 421.716 77.6827 2
-12 -5 -4 319.341 37.6189 3
12 5 4 193.435 66.5565 1
13 -5 4 565.493 94.1689 2
-13 -5 -4 505.146 50.1842 3
14 -5 4 171.951 106.92 2
-14 -5 -4 186.786 37.7698 3
-15 -5 -4 429.125 52.3486 3
-14 -6 4 710.503 62.2142 3
13 -6 -4 45.0493 61.3426 2
-13 -6 4 60.7266 33.6947 3
-12 -6 4 275.294 40.7903 3
12 6 -4 195.259 90.5996 1
11 -6 -4 9.26512 40.1228 2
-11 -6 4 -18.49 24.8252 3
11 6 -4 -5.917 69.7652 1
10 -6 -4 381.542 46.6546 2
-10 -6 4 372.205 42.893 3
10 6 -4 317.862 74.3772 1
9 -6 -4 22.481 25.9967 2
-9 -6 4 -9.6256 20.2294 3
9 6 -4 16.4961 57.9379 1
-8 -6 4 1666.42 73.7128 3
8 -6 -4 1828.79 72.9386 2
8 6 -4 1667.13 95.9741 2
8 6 -4 1700.5 112.826 1
7 -6 -4 38.3217 19.624 2
-7 -6 4 59.3901 24.3466 3
-7 6 4 18.6413 26.9917 1
7 6 -4 25.0704 31.9036 2
7 6 -4 -40.751 39.3083 1
-6 -6 4 89.6748 24.5884 3
6 6 -4 163.403 43.8991 1
-6 6 4 169.172 31.5423 1
-6 6 4 142.971 26.2314 2
6 6 -4 94.5463 33.8701 2
-5 -6 4 15.6531 16.9056 3
-5 6 4 10.0389 26.8026 1
5 6 -4 -29.701 31.0236 1
5 6 -4 -9.3643 26.8314 2
-5 6 4 11.9061 19.9441 2
-4 -6 4 519.684 39.2936 3
4 6 -4 449.756 53.8103 2
4 6 -4 522.407 61.7329 1
-4 6 4 550.326 40.6595 2
-3 -6 4 87.1661 23.5769 3
3 6 -4 67.0178 30.9124 1
-3 6 4 105.907 24.0045 2
3 6 -4 95.4453 30.2809 2
-2 -6 4 2115.71 79.377 3
-2 6 4 2010.42 75.5907 2
2 6 -4 1997.93 91.7816 1
1 -6 -4 -26.093 17.1512 3
-1 -6 4 -3.4695 16.7204 3
-1 6 4 -1.2994 19.0507 2
-1 6 4 -1.7409 18.9103 1
1 6 -4 -6.949 23.7883 1
1 6 -4 -6.8292 24.7475 2
0 -6 4 647.002 45.7808 3
0 -6 -4 643.317 42.814 3
0 6 -4 588.234 50.8941 1
0 6 4 664.109 47.5374 1
0 6 4 667.679 44.0159 2
0 6 -4 677.902 58.8397 2
-1 -6 -4 12.2601 15.7211 3
1 -6 4 3.73611 17.8064 3
1 6 4 1.64229 19.3867 1
-1 6 -4 -23.158 21.2245 1
1 6 4 12.7729 19.8703 2
-1 6 -4 -26.223 26.8404 2
-2 -6 -4 666.053 41.4204 3
2 6 4 686.193 54.2942 1
-2 6 -4 641.229 62.5442 2
2 6 4 609.912 45.3391 2
-3 -6 -4 112.668 23.2042 3
3 6 4 166.768 28.6622 2
3 6 4 95.6262 36.0475 1
4 -6 4 1691.62 82.8598 2
-4 -6 -4 1599.99 66.0102 3
-4 6 -4 1477.38 87.1989 2
4 6 4 1634.27 85.8612 1
-5 -6 -4 -19.635 17.6442 3
5 -6 4 -23.301 28.5931 2
-5 6 -4 57.4746 35.9921 2
5 6 4 -5.8391 28.3394 1
-6 -6 -4 1086.64 55.4085 3
6 -6 4 1108.3 78.6271 2
-6 6 -4 1158.95 81.3615 2
6 6 4 1238.39 79.7919 1
-7 -6 -4 -10.674 20.1926 3
7 -6 4 61.979 37.9405 2
-7 6 -4 35.6831 37.2109 2
7 6 4 42.2362 38.3458 1
-8 -6 -4 160.246 29.8592 3
8 -6 4 128.492 45.7575 2
8 6 4 196.998 52.5717 1
-8 6 -4 210.355 46.0154 2
9 -6 4 48.7938 54.4005 2
-9 -6 -4 51.9411 23.4741 3
-9 6 -4 92.3228 49.6242 2
9 6 4 33.1057 53.4163 1
10 -6 4 1051.43 119.856 2
-10 -6 -4 1179.31 63.2618 3
-10 6 -4 1138.72 106.514 2
10 6 4 1060.59 125.855 1
11 -6 4 115.824 69.8377 2
11 6 4 -42.313 70.5322 1
-11 6 -4 80.6107 65.5242 2
-12 -6 -4 575.059 59.8172 3
12 -6 4 526.524 92.1114 2
-13 -6 -4 14.1001 37.7344 3
-12 -7 4 101.388 41.5184 3
-11 -7 4 814.238 66.9714 3
-10 -7 4 87.1651 35.8296 3
10 -7 -4 143.964 40.8896 2
10 7 -4 146.961 93.066 1
10 7 -4 181.607 74.3859 2
9 -7 -4 306.898 40.8364 2
-9 -7 4 282.829 39.4824 3
9 7 -4 209.34 70.1121 2
9 7 -4 274.766 88.5914 1
-8 -7 4 -32.055 26.6 3
8 7 -4 -99.322 48.6928 2
8 7 -4 60.626 66.903 1
-7 -7 4 188.807 37.1807 3
7 7 -4 260.791 58.1172 2
7 7 -4 89.9987 59.9944 1
-6 -7 4 106.311 28.3518 3
-6 7 4 175.239 36.3673 1
6 7 -4 134.952 50.9618 2
-6 7 4 139.788 28.8539 1
6 7 -4 140.958 57.2215 1
-6 7 4 65.4906 30.5283 2
-5 -7 4 1360.23 69.3551 3
-5 7 4 1199.57 67.0611 2
5 7 -4 1296.58 94.0761 2
-5 7 4 1329.19 66.1757 1
-5 7 4 1220.4 74.3948 1
5 7 -4 1207.62 100.6 1
-4 -7 4 74.9319 26.8821 3
-4 7 4 41.8225 26.2238 2
-4 7 4 33.7199 27.5972 1
4 7 -4 -35.992 46.2694 1
4 7 -4 -75.284 35.8229 2
-3 -7 4 662.452 52.2353 3
3 7 -4 633.493 78.3619 1
-3 7 4 637.291 55.6343 1
-3 7 4 647.194 55.1152 2
3 7 -4 844.057 75.4946 2
-2 -7 4 31.777 24.5401 3
2 7 -4 23.5289 39.0662 1
-2 7 4 9.67702 27.6252 1
2 7 -4 30.5621 31.1377 2
-2 7 4 -48.941 26.0918 2
-1 -7 4 111.003 29.4451 3
-1 7 4 93.5071 29.4063 2
1 7 -4 90.5976 38.7519 1
1 7 -4 146.583 37.468 2
-1 7 4 95.1447 30.6881 1
0 -7 -4 23.8174 20.9436 3
0 -7 4 88.3645 29.149 3
0 7 -4 103.2 41.5507 2
0 7 4 32.2438 28.9296 2
0 7 4 58.9284 33.6943 1
0 7 -4 78.3772 33.8358 1
-1 -7 -4 1754.69 76.3929 3
1 7 4 1617.13 78.1881 2
-1 7 -4 1619.57 76.8377 1
-1 7 -4 1609.23 95.3209 2
-2 -7 -4 111.078 27.0844 3
2 7 4 88.7237 36.7284 1
-2 7 -4 139.551 44.5596 2
2 7 4 152.869 35.621 2
-3 -7 -4 475.928 43.7411 3
3 7 4 524.581 66.2754 1
3 7 4 425.95 58.6618 2
-3 7 -4 442.467 60.9192 2
-4 -7 -4 14.6627 22.8765 3
4 7 4 2.4391 33.5972 2
4 7 4 -58.018 36.6821 1
-4 7 -4 5.84551 45.2019 2
5 -7 4 139.578 46.4667 2
-5 -7 -4 176.673 31.6997 3
-5 7 -4 138.888 48.6358 2
5 7 4 146.326 48.9924 1
5 7 4 117.292 45.4994 2
6 -7 4 41.2115 41.4967 2
-6 -7 -4 80.8645 29.7561 3
-6 7 -4 32.1568 53.4791 2
6 7 4 86.1761 42.0591 2
6 7 4 4.46066 47.9798 1
7 -7 4 999.835 99.3246 2
-7 -7 -4 955.257 64.144 3
-7 7 -4 1098.37 105.23 2
7 7 4 1209.69 116.558 1
-8 -7 -4 43.765 29.5481 3
8 -7 4 90.1467 53.5616 2
8 7 4 148.768 75.6457 1
-8 7 -4 71.8831 62.293 2
-9 -7 -4 340.128 45.8846 3
9 -7 4 402.855 72.0941 2
-9 7 -4 378.523 76.4928 2
9 7 4 435.644 90.8919 1
-10 -7 -4 15.4049 30.117 3
10 -7 4 -11.799 66.3859 2
-10 7 -4 -30.166 76.7013 2
11 -7 4 -42.617 82.3683 2
-11 -7 -4 48.1477 34.1971 3
-11 7 -4 -87.388 88.3551 2
-10 -8 4 37.6629 37.3321 3
-9 -8 4 446.552 52.078 3
-8 -8 4 294.037 44.9503 3
8 8 -4 177.802 111.383 1
-7 -8 4 337.205 50.5634 3
7 8 -4 -85.574 85.693 1
7 8 -4 339.933 81.7227 2
-6 -8 4 180.653 40.7782 3
6 8 -4 239.121 84.7858 1
6 8 -4 90.9851 67.6629 2
-5 -8 4 -14.287 32.0192 3
5 8 -4 -16.553 61.6398 2
-5 8 4 28.8624 47.149 1
-5 8 4 36.7422 40.9285 1
-5 8 4 8.8357 38.9073 2
5 8 -4 105.611 74.6992 1
-4 -8 4 155.653 39.0113 3
-4 8 4 177.736 42.5583 2
4 8 -4 299.927 70.4097 1
4 8 -4 224.979 68.8364 2
-4 8 4 131.461 43.0156 1
-3 -8 4 465.926 56.6779 3
3 8 -4 553.832 79.6844 2
-3 8 4 462.116 53.5472 2
3 8 -4 601.837 74.9104 1
-3 8 4 392.158 53.9516 1
-2 -8 4 416.393 47.8017 3
-2 8 4 480.584 58.2554 1
2 8 -4 427.628 69.8002 2
-2 8 4 495.261 52.9158 2
2 8 -4 461.437 72.3475 1
-1 -8 4 778.042 63.611 3
1 8 -4 754.738 96.0818 1
-1 8 4 856.395 121.48 1
1 8 -4 900.36 103.959 2
-1 8 4 713.496 77.8683 2
0 -8 4 176.768 35.8516 3
0 8 4 113.213 47.6973 1
0 8 4 72.601 42.3349 2
0 8 -4 45.9665 55.8906 2
0 8 -4 225.763 51.1928 1
-1 -8 -4 33.9478 32.6951 3
1 8 4 62.9626 45.7357 2
-1 8 -4 44.671 57.1852 2
1 8 4 18.3448 49.3909 1
-2 -8 -4 142.227 34.9633 3
-2 8 -4 154.656 63.9272 2
2 8 4 137.11 59.0378 1
2 8 4 183.094 49.769 2
-3 -8 -4 360.914 45.8578 3
-3 8 -4 440.204 79.1453 2
3 8 4 407.551 62.6524 2
3 8 4 584.658 74.0477 1
-4 -8 -4 356.42 42.699 3
4 8 4 212.637 71.5281 1
-4 8 -4 403.443 80.1496 2
4 8 4 320.968 62.2351 2
-5 -8 -4 561.581 62.388 3
5 8 4 416.006 88.9961 1
5 8 4 382.72 64.8619 2
-5 8 -4 369.682 85.7271 2
-6 -8 -4 191.911 41.2354 3
-6 8 -4 165.849 77.8955 2
6 8 4 206.042 82.6397 1
6 8 4 189.484 69.2666 2
7 -8 4 160.109 66.602 2
-7 -8 -4 11.0063 40.1683 3
7 8 4 -43.143 97.2866 1
7 8 4 105.434 70.4805 2
-7 8 -4 56.5854 76.5633 2
8 -8 4 84.1312 73.7754 2
-8 -8 -4 50.4254 36.8281 3
-8 8 -4 49.8848 85.2158 2
8 8 4 126.209 77.6788 2
-9 -8 -4 212.398 48.2513 3
9 -8 4 286.936 91.4844 2
9 8 4 279.437 93.2228 2
-9 8 -4 252.612 124.541 2
-5 -9 4 83.4726 43.6336 3
5 9 -4 256.914 122.286 1
-4 -9 4 665.865 73.4805 3
4 9 -4 551.063 132.984 1
-3 -9 4 51.1909 47.3484 3
3 9 -4 57.3774 92.0855 2
-2 -9 4 54.1158 41.7104 3
2 9 -4 71.9524 90.4578 2
-1 -9 4 56.0946 43.0801 3
1 9 -4 98.2424 85.3706 2
0 9 -4 720.28 108.697 2
0 9 4 662.54 94.3829 1
-1 9 -4 255.023 95.1304 2
1 9 4 171.27 83.3511 1
-2 -9 -4 715.363 81.2901 3
-2 9 -4 654.956 112.953 2
2 9 4 628.732 102.47 1
-3 -9 -4 109.961 51.5827 3
3 9 4 180.238 96.5477 1
-3 9 -4 75.4195 99.2464 2
-4 -9 -4 -19.051 43.7907 3
4 9 4 -108.8 99.2066 1
-4 9 -4 -30.356 103.104 2
-18 0 5 -139.29 63.8869 1
18 0 -5 -104.71 118.322 1
17 0 -5 325.552 99.5271 1
17 0 -5 96.4935 67.8705 2
-17 0 5 144.147 60.4481 1
16 0 -5 14.4689 48.0174 2
16 0 -5 56.8115 66.1498 1
-16 0 5 -12.475 45.3865 1
15 0 -5 1094.87 108.342 1
-15 0 5 1135.47 87.7609 1
14 0 -5 84.7902 48.0857 1
13 0 -5 247.193 51.7742 1
-13 0 5 331.171 46.0739 1
12 0 -5 -33.848 30.9254 1
-12 0 5 -2.2148 25.5307 1
11 0 -5 10.4652 29.9821 1
-11 0 5 6.92595 20.0057 1
-10 0 5 23.8532 18.2166 1
10 0 -5 -36.572 24.6443 1
9 0 -5 2272.52 99.831 1
-9 0 5 2264.32 91.0605 1
8 0 -5 -4.2272 18.187 1
-8 0 5 13.5824 14.536 1
7 0 -5 2491.44 96.9294 1
-7 0 5 2597.17 93.9644 1
6 0 -5 22.1819 11.855 1
-6 0 5 -3.6131 11.595 1
-5 0 5 3334.9 107.623 1
5 0 -5 3195.91 107.048 1
4 0 -5 0.70914 9.77655 1
-4 0 5 -1.2659 9.7651 1
-3 0 5 2830.71 90.9094 1
3 0 -5 2735.52 89.1255 1
2 0 -5 4.88416 5.39338 2
-2 0 5 -1.2871 8.27429 1
-1 0 5 2392.83 68.7588 2
1 0 -5 2399.69 69.6987 2
0 0 5 -0.8998 5.27822 2
0 0 -5 6.87637 5.60577 2
-1 0 -5 734.276 32.0784 2
1 0 5 792.368 33.1005 2
2 0 5 -15.889 6.37346 2
-2 0 -5 -2.7068 6.94669 2
3 0 5 7338.49 194.882 2
-3 0 -5 7203.1 193.227 2
4 0 5 0.14008 9.78377 2
-4 0 -5 4.31561 8.58336 2
5 0 5 2699.59 95.5769 2
-5 0 -5 2794.52 92.0188 2
6 0 5 -20.996 11.9273 2
7 0 5 30.0413 11.7588 1
7 0 5 19.5491 17.7107 2
8 0 5 -19.307 15.8381 2
8 0 5 -3.5908 13.9257 1
9 0 5 2552.64 104.777 2
9 0 5 2432.98 90.2677 1
10 0 5 6.23112 19.7051 1
11 0 5 1668.06 92.5645 2
11 0 5 1534.68 77.611 1
12 0 5 -12.58 34.339 2
12 0 5 -29.609 28.5815 1
13 0 5 30.7135 35.2405 1
13 0 5 18.9762 42.8995 2
14 0 5 -51.474 41.3071 1
14 0 5 34.0982 51.2774 2
15 0 5 840.25 102.844 1
15 0 5 994.049 118.084 2
16 0 5 -55.079 72.6334 1
17 0 5 707.235 117.205 1
-18 -1 5 375.831 142.959 1
18 -1 -5 482.279 131.229 1
18 -1 -5 504.609 106.403 2
-18 1 5 394.722 80.5098 1
17 -1 -5 168.523 75.571 2
17 -1 -5 336.304 93.2934 1
-17 -1 5 167.892 64.3313 1
-17 1 5 112.535 60.594 1
17 1 -5 -59.309 94.3803 1
-16 -1 5 323.235 60.2555 1
16 -1 -5 350.795 68.058 2
16 -1 -5 371.419 79.3701 1
16 1 -5 224.621 78.8136 1
-16 1 5 260.275 58.3772 1
15 -1 -5 30.5359 56.4669 1
15 -1 -5 -24.946 46.0234 2
-15 -1 5 83.7653 45.1589 1
15 1 -5 -62.689 57.3688 1
-15 1 5 47.8896 39.5545 1
14 -1 -5 35.2137 45.3422 1
14 -1 -5 32.8847 34.7114 2
-14 -1 5 74.498 37.0914 1
-14 1 5 117.59 37.9699 1
14 1 -5 109.884 52.5448 1
13 -1 -5 78.2134 29.727 2
-13 -1 5 47.1536 33.5013 1
13 -1 -5 156.21 45.9962 1
13 1 -5 110.792 44.7431 1
-13 1 5 169.234 35.1068 1
-12 -1 5 1918.74 93.2891 1
12 -1 -5 2059.12 104.964 1
12 1 -5 2002.53 110.791 1
-12 1 5 2076.03 92.177 1
11 -1 -5 559.458 59.6121 1
-11 -1 5 624 52.3214 1
-11 1 5 590.743 50.0265 1
11 1 -5 488.518 61.8363 1
-10 -1 5 674.795 51.4703 1
10 -1 -5 702.258 57.7494 1
-10 1 5 748.746 52.6663 1
10 1 -5 777.287 65.2144 1
-9 -1 5 264.024 35.9916 1
9 -1 -5 240.681 36.9113 1
-9 1 5 260.028 35.069 1
9 1 -5 233.656 38.1528 1
-8 -1 5 54.0837 17.1182 1
8 -1 -5 72.1552 25.3195 1
-8 1 5 76.7245 18.9735 1
8 1 -5 126.204 27.5327 1
-7 -1 5 71.0373 16.9499 1
7 -1 -5 99.8518 21.238 1
7 1 -5 130.71 25.3608 1
-7 1 5 144.94 25.6142 1
6 -1 -5 2802.55 97.9461 1
-6 -1 5 2948.28 101.238 1
-6 1 5 2854.78 98.4141 1
6 1 -5 2907.14 104.551 1
5 -1 -5 2547.84 87.5957 1
-5 -1 5 2608.59 90.5038 1
5 1 -5 2549.37 94.029 1
-5 1 5 2598.74 89.5986 1
-4 -1 5 4875.71 144.043 1
-4 1 5 4843.43 141.014 1
4 1 -5 4806.92 145.159 1
-3 -1 5 72.7786 15.572 1
3 1 -5 74.8708 17.2774 1
-3 1 5 53.7052 14.3547 1
2 -1 -5 153.574 9.80914 2
-2 -1 5 151.163 8.66791 3
-2 -1 5 174.444 20.8373 1
2 1 -5 167.645 22.0966 1
2 1 -5 129.827 15.9757 2
-1 -1 5 270.411 11.0144 3
-1 -1 5 255.765 21.8435 1
-1 -1 5 268.998 19.5063 2
1 -1 -5 270.691 13.2871 2
-1 1 5 283.218 11.2463 3
1 1 -5 262.519 20.4809 2
-1 1 5 270.498 12.2266 2
1 1 -5 277.702 22.7431 1
0 -1 -5 3331.23 87.8326 2
0 -1 5 3321.71 83.1024 3
0 -1 5 3326.54 97.769 1
0 -1 5 3315.05 97.7068 2
0 1 -5 3247.6 98.6494 2
0 1 5 3356.01 88.2681 2
0 1 -5 3476.47 82.1051 3
-1 -1 -5 752.956 29.0215 2
1 -1 5 749.836 35.1564 2
-1 1 -5 799.272 23.2305 3
-1 1 -5 722.716 35.7067 2
1 1 5 747.959 29.9084 2
2 -1 5 2850.57 91.293 2
-2 -1 -5 2866.64 71.6134 3
-2 1 -5 2875.68 91.3607 2
-2 1 -5 3006.74 74.8545 3
2 1 5 2842.8 85.13 2
3 -1 5 799.459 39.9367 2
-3 1 -5 745.572 39.9362 2
3 1 5 724.475 35.5628 2
4 -1 5 106.171 18.746 2
-4 1 -5 74.1843 15.5523 2
4 1 5 91.3783 17.228 2
5 -1 5 138.747 22.7284 2
-5 1 -5 190.281 25.6597 2
5 1 5 234.848 25.356 2
6 -1 5 2113.41 85.2351 2
6 1 5 2117.25 81.5632 2
-6 1 -5 2196.66 82.9769 2
7 -1 5 502.415 30.9165 1
7 -1 5 486.82 41.6711 2
-7 1 -5 490.358 38.826 2
7 1 5 489.219 35.7892 1
7 1 5 498.786 40.3695 2
8 -1 5 1772.54 65.0733 1
8 -1 5 1643.69 80.4141 2
8 1 5 1742.24 80.7976 2
8 1 5 1774.17 72.4831 1
9 -1 5 244.464 28.1784 1
9 -1 5 274.673 41.4892 2
9 1 5 222.046 32.4576 2
9 1 5 263.949 35.4748 1
10 -1 5 25.8598 20.43 1
10 -1 5 50.2999 31.8375 2
10 1 5 70.9191 23.4732 1
11 -1 5 72.3417 26.6503 1
11 -1 5 106.371 36.7903 2
11 1 5 30.5312 30.4352 2
11 1 5 112.826 35.2033 1
12 -1 5 1103.53 69.1105 1
12 -1 5 1087.06 88.0176 2
12 1 5 1054.15 83.0399 2
12 1 5 980.698 77.359 1
13 -1 5 185.751 59.0688 2
13 -1 5 245.776 45.7 1
13 1 5 258.911 49.1657 1
13 1 5 265.843 55.6553 2
14 -1 5 918.374 99.0129 2
14 1 5 845.783 100.072 2
14 1 5 997.461 97.9131 1
15 -1 5 108 56.786 1
15 -1 5 59.5812 68.4963 2
15 1 5 -33.115 64.1928 1
15 1 5 204.317 73.7026 2
16 -1 5 80.5443 69.5681 1
16 1 5 -56.665 77.442 1
17 -1 5 -107.61 90.8723 1
18 -2 -5 174.27 119.441 1
18 -2 -5 136.167 93.4942 2
-18 2 5 -81.378 68.714 1
17 -2 -5 70.1443 70.8178 2
17 -2 -5 -9.3876 86.1631 1
-17 -2 5 102.63 68.9815 1
17 2 -5 108.381 111.949 1
-17 2 5 81.7678 55.0102 1
-16 -2 5 356.977 63.9296 1
16 -2 -5 510.983 81.2602 1
16 -2 -5 633.117 83.4427 2
-16 2 5 398.165 62.6866 1
16 2 -5 494.193 101.93 1
-15 -2 5 200.668 50.6522 1
15 -2 -5 339.555 59.7604 2
15 -2 -5 274.818 66.6562 1
15 2 -5 156.789 66.2561 1
-15 2 5 261.703 47.9931 1
14 -2 -5 621.646 72.7066 2
-14 -2 5 734.579 78.7553 1
14 -2 -5 578.265 87.8188 1
14 2 -5 449.107 72.7673 1
-14 2 5 741.478 66.2563 1
-13 -2 5 330.539 48.3368 1
13 -2 -5 360.76 68.9772 2
13 -2 -5 378.534 54.2737 1
-13 2 5 313.604 48.0942 1
13 2 -5 367.261 56.6665 1
12 -2 -5 -34.024 31.1305 1
-12 -2 5 -48.112 24.0787 1
12 -2 -5 -4.1462 24.8243 2
12 2 -5 14.3484 39.3381 1
-12 2 5 0.48369 27.7534 1
-11 -2 5 9.50716 20.815 1
11 -2 -5 -7.9372 20.8786 2
11 -2 -5 52.9409 31.0908 1
-11 2 5 6.69293 24.2219 1
11 2 -5 102.623 35.813 1
10 -2 -5 852.887 49.5839 2
-10 -2 5 802.254 55.7661 1
10 -2 -5 837.958 58.7064 1
10 2 -5 693.973 66.0591 1
-10 2 5 808.089 55.0552 1
9 -2 -5 473.643 46.614 1
-9 -2 5 508.964 45.9634 1
9 -2 -5 590.535 38.3446 2
9 2 -5 477.876 54.1088 1
-9 2 5 528.461 43.4697 1
8 -2 -5 2028.78 73.5018 2
-8 -2 5 2100.2 87.1845 1
-8 2 5 2159.9 84.1321 1
8 2 -5 2135.53 95.9283 1
7 -2 -5 370.295 25.7442 2
-7 -2 5 394.281 35.7707 1
-7 2 5 399.146 35.827 1
7 2 -5 354.314 42.4665 1
-6 -2 5 99.4612 20.6513 1
6 -2 -5 94.0593 13.469 2
6 2 -5 87.8023 20.4324 1
-6 2 5 75.2856 19.3245 1
-5 -2 5 52.9972 16.3991 1
5 -2 -5 111.198 12.5535 2
-5 2 5 98.803 18.2527 1
5 2 -5 115.196 24.1884 1
-4 -2 5 1215.55 38.7397 3
-4 -2 5 1242.25 55.8275 1
4 -2 -5 1264.6 37.6467 2
4 2 -5 1231.46 58.5039 1
-4 2 5 1271.07 53.3392 1
-3 -2 5 819.714 27.6619 3
-3 -2 5 760.048 40.8255 1
3 2 -5 811.981 39.7982 2
3 2 -5 804.604 44.4104 1
-2 -2 5 3212.1 83.6584 3
-2 -2 5 3270.72 100.649 1
2 2 -5 3208.58 101.738 1
2 2 -5 3077.09 98.7262 2
-2 2 5 3183.82 84.2399 3
-1 -2 5 794.432 37.9893 1
-1 -2 5 753.136 26.5388 3
-1 -2 5 780.968 37.5594 2
1 2 -5 778.443 39.2869 2
1 2 -5 725.994 37.1607 1
1 2 -5 783.529 25.4947 3
-1 2 5 767.78 25.9914 3
0 -2 -5 213.034 12.4982 3
0 -2 5 198.721 19.7631 2
0 -2 5 216.448 19.2132 1
0 -2 5 214.527 13.4717 3
0 2 -5 175.451 12.4719 3
0 2 5 193.404 11.9498 3
0 2 -5 200.328 20.2981 1
0 2 5 211.748 11.4236 2
0 2 -5 171.417 21.1833 2
1 -2 5 83.465 13.4002 1
1 -2 5 64.4049 8.95281 3
-1 -2 -5 72.102 8.41529 3
1 -2 5 90.8193 17.1496 2
-1 2 -5 80.0142 10.2834 3
1 2 5 66.7376 9.70567 2
1 2 5 80.2755 8.07158 3
-1 2 -5 64.6741 14.6251 2
2 -2 5 298.45 26.3687 2
-2 -2 -5 304.857 14.4738 3
2 -2 5 327.187 20.3394 1
-2 2 -5 353.999 18.8568 3
2 2 5 322.51 20.3079 2
-2 2 -5 343.181 29.3513 2
3 -2 5 1602.09 65.7956 2
-3 -2 -5 1617.04 45.76 3
-3 2 -5 1564.26 65.1713 2
3 2 5 1577.77 56.1896 2
-3 2 -5 1681.97 50.8598 3
-4 -2 -5 4701.63 115.8 3
4 -2 5 4492.97 140.692 2
4 2 5 4515.66 130.249 2
-4 2 -5 4433.86 140.575 2
5 -2 5 448.975 37.7045 2
-5 2 -5 555.944 39.9815 2
5 2 5 481.576 32.9562 2
6 -2 5 62.8258 11.0572 1
6 -2 5 40.7598 18.5712 2
6 2 5 84.6323 21.4907 2
-6 2 -5 20.2167 14.4989 2
7 -2 5 4.4484 17.4723 2
7 -2 5 3.45451 10.2085 1
7 2 5 -4.8954 14.953 2
-7 2 -5 10.8988 15.6391 2
7 2 5 2.27436 15.3401 1
8 -2 5 729.805 37.3524 1
8 -2 5 810.197 58.1941 2
8 2 5 699.477 49.0538 1
8 2 5 761.294 52.3 2
-8 2 -5 779.763 54.334 2
9 -2 5 306.205 31.4531 1
9 2 5 326.655 40.5043 1
9 2 5 356.884 44.6269 2
10 -2 5 1239.96 59.5507 1
10 -2 5 1525.37 86.047 2
10 2 5 1278.21 72.7058 1
10 2 5 1351.52 78.6659 2
11 -2 5 455.312 46.255 1
11 -2 5 586.263 69.033 2
11 2 5 381.537 51.4833 2
11 2 5 511.692 57.8546 1
12 -2 5 305.331 54.6456 2
12 -2 5 314.13 40.2644 1
12 2 5 294.27 47.477 1
12 2 5 354.159 54.0063 2
13 -2 5 -48.292 52.0493 2
13 -2 5 68.3386 34.9664 1
13 2 5 43.8504 46.471 2
13 2 5 -12.661 45.7928 1
14 -2 5 149.605 66.8151 2
14 -2 5 215.636 50.3238 1
14 2 5 229.079 68.0708 1
14 2 5 326.527 68.0308 2
15 -2 5 146.302 59.3252 1
15 -2 5 94.5842 76.3251 2
15 2 5 260.997 76.9409 1
15 2 5 158.641 72.0328 2
16 -2 5 876.776 99.9719 1
16 2 5 549.709 108.568 1
18 -3 -5 5.60884 104.906 2
17 -3 -5 815.294 104.204 2
-17 3 5 738.175 77.3304 1
-16 -3 5 -57.557 56.2401 1
16 -3 -5 -33.537 63.242 2
16 3 -5 76.9355 96.6369 1
-16 3 5 -47.451 48.5009 1
15 -3 -5 -1.6103 53.9015 2
-15 -3 5 -21.688 49.3416 1
15 3 -5 94.1618 80.4789 1
-15 3 5 23.0054 41.4197 1
-14 -3 5 -46.407 42.5489 1
14 -3 -5 51.3158 41.086 2
14 3 -5 222.548 73.2811 1
-14 3 5 3.11572 34.2649 1
13 -3 -5 758.757 71.6909 2
-13 -3 5 597.777 73.5679 1
-13 3 5 731.288 63.5343 1
13 3 -5 740.448 93.4619 1
-12 -3 5 23.0982 30.3298 1
12 -3 -5 13.3558 27.3828 2
-12 3 5 65.7718 27.7052 1
12 3 -5 61.6166 43.6286 1
-11 -3 5 1699.04 88.2558 1
11 -3 -5 1655.04 78.3791 2
11 3 -5 1615.05 104.617 1
-11 3 5 1679.94 79.2835 1
-10 -3 5 35.8704 22.8315 1
10 -3 -5 22.4193 19.4856 2
10 3 -5 -5.1673 31.6996 1
-10 3 5 0.29777 22.9727 1
-9 -3 5 149.544 28.5991 1
9 -3 -5 262.125 31.8711 2
9 3 -5 217.993 42.7377 1
-9 3 5 207.159 31.9673 1
8 -3 -5 2.08241 13.7095 2
-8 -3 5 0.94601 15.59 1
-8 3 5 2.61094 18.6221 1
8 3 -5 49.9588 31.424 1
-7 -3 5 1435.03 49.7056 3
-7 -3 5 1415.82 69.1253 1
7 -3 -5 1417.24 53.62 2
7 3 -5 1442.24 78.8647 1
-7 3 5 1434.68 65.0836 1
-6 -3 5 60.1346 11.0806 3
-6 -3 5 56.2865 18.127 1
6 -3 -5 72.0841 12.2696 2
-6 3 5 65.5872 19.741 1
6 3 -5 84.0313 27.1866 1
-5 -3 5 2662.75 95.6625 1
-5 -3 5 2646.39 76.2206 3
5 -3 -5 2572.36 73.5339 2
5 3 -5 2714.84 102.938 1
-5 3 5 2539.4 90.4435 1
-4 -3 5 94.8509 12.2789 3
-4 -3 5 79.5296 18.0601 1
4 3 -5 57.957 18.419 1
-4 3 5 52.689 15.7005 3
4 3 -5 65.9311 18.152 2
-3 -3 5 676.257 39.8373 1
-3 -3 5 762.491 30.1638 3
3 3 -5 778.725 43.7798 2
3 3 -5 714.218 45.6388 1
-3 3 5 800.348 34.2327 3
-2 -3 5 -11.35 12.0422 1
-2 -3 5 -5.3383 6.02697 3
-2 3 5 18.8698 11.4071 3
2 3 -5 1.15078 8.99214 3
2 3 -5 -6.5725 13.2308 1
2 3 -5 -21.946 10.4257 2
-1 -3 5 2892.97 88.8783 1
-1 -3 5 2807.75 79.1487 3
1 -3 -5 2695.85 78.8179 3
1 3 -5 2709.23 95.6293 2
1 3 -5 2774.87 75.8408 3
-1 3 5 2793.19 76.5257 3
1 3 -5 2801.95 91.748 1
0 -3 5 37.6977 9.41622 3
0 -3 5 7.6761 8.79094 1
0 -3 5 11.77 10.914 2
0 -3 -5 13.3902 7.78742 3
0 3 -5 13.9372 9.242 3
0 3 5 17.2064 9.50117 3
0 3 -5 24.3053 12.9355 2
0 3 -5 36.795 13.2407 1
1 -3 5 5364.12 158.022 2
-1 -3 -5 5559.02 140.341 3
1 -3 5 5414.09 144.719 1
1 -3 5 5406.39 142.915 3
1 3 5 5442.8 136.736 3
-1 3 -5 5493.84 139.276 3
-1 3 -5 5418.5 163.328 2
2 -3 5 20.21 8.35113 1
2 -3 5 18.1192 12.4459 2
-2 -3 -5 18.7708 6.76053 3
-2 3 -5 29.9877 11.5286 3
-2 3 -5 3.06859 12.19 2
2 3 5 17.0207 8.32964 3
-3 -3 -5 583.694 25.339 3
3 -3 5 670.864 42.2882 2
3 -3 5 618.983 25.398 1
-3 3 -5 678.982 33.234 3
-3 3 -5 625.203 44.255 2
4 -3 5 2.24093 13.5563 2
-4 -3 -5 16.939 6.86571 3
-4 3 -5 -9.4588 15.0423 2
-5 -3 -5 1091.1 38.3704 3
5 -3 5 1092.97 59.7861 2
-5 3 -5 1095.2 61.0325 2
-6 -3 -5 5.43432 7.37442 3
6 -3 5 9.73083 20.011 2
6 3 5 12.1187 15.0979 1
-6 3 -5 -3.0073 21.1094 2
-7 -3 -5 2623.62 79.4385 3
7 -3 5 2797.34 109.701 2
7 3 5 2684.55 101.36 1
-7 3 -5 2803.04 107.811 2
-8 -3 -5 77.5868 13.1276 3
8 -3 5 94.2799 29.4748 2
8 3 5 70.3512 25.0356 1
-8 3 -5 97.889 26.7289 2
-9 -3 -5 1203.92 46.5109 3
9 -3 5 1317.24 79.9436 2
-9 3 -5 1038.73 69.1013 2
9 3 5 1213.1 69.7403 1
9 3 5 1212.25 70.4633 2
10 -3 5 18.3422 30.0623 2
10 -3 5 36.0836 18.2708 1
-10 3 -5 -1.7088 27.5821 2
10 3 5 56.7695 30.2578 1
10 3 5 -5.6587 29.9381 2
11 -3 5 398.029 43.2557 1
11 -3 5 367.857 58.9361 2
11 3 5 564.81 63.9785 1
11 3 5 500.832 68.1711 2
12 -3 5 63.0237 29.4459 1
12 -3 5 23.31 48.379 2
12 3 5 -24.272 37.9487 1
12 3 5 5.98526 43.204 2
13 -3 5 1298.81 76.7017 1
13 -3 5 1382.43 123.299 2
13 3 5 1450.32 113.62 2
13 3 5 1261.28 111.182 1
14 -3 5 145.551 69.4324 2
14 -3 5 -42.867 42.6598 1
14 3 5 -13.225 65.104 1
14 3 5 30.217 58.8295 2
15 -3 5 365.525 97.1699 2
15 3 5 391.361 92.8175 1
15 3 5 605.096 126.667 2
17 -4 -5 98.1014 96.7394 2
-17 -4 5 -12.026 25.6793 3
16 -4 -5 223.229 76.7664 2
-16 -4 5 251.714 34.324 3
-16 4 5 319.339 57.6188 1
-15 -4 5 206.01 31.6486 3
15 -4 -5 245.118 70.4763 2
-15 -4 5 274.465 70.0464 1
-15 4 5 182.807 45.6801 1
15 4 -5 111.119 112.692 1
-14 -4 5 646.535 88.2365 1
-14 -4 5 686.311 46.7653 3
14 -4 -5 756.833 89.232 2
14 4 -5 566.336 96.1072 1
-14 4 5 727.259 65.6709 1
-13 -4 5 103.125 22.1334 3
-13 -4 5 93.2959 48.0633 1
13 -4 -5 221.439 47.1128 2
-13 4 5 125.989 33.4287 1
13 4 -5 102.492 58.8553 1
-12 -4 5 6.72661 33.5718 1
12 -4 -5 57.5184 35.6367 2
-12 -4 5 5.52511 16.7873 3
12 4 -5 10.4073 52.1032 1
-12 4 5 61.3639 29.4986 1
11 -4 -5 21.636 27.597 2
-11 -4 5 2.52176 29.2591 1
-11 -4 5 10.3029 14.083 3
-11 4 5 21.7185 28.4759 1
11 4 -5 12.0129 45.5888 1
-10 -4 5 992.697 70.6977 1
10 -4 -5 889.265 54.5658 2
-10 -4 5 932.777 45.376 3
-10 4 5 992.516 59.8497 1
10 4 -5 1035.95 85.3256 1
-9 -4 5 208.685 32.9266 1
-9 -4 5 227.089 26.383 3
9 -4 -5 190.824 26.3782 2
9 4 -5 271.841 46.3741 1
-9 4 5 235.092 32.5665 1
-8 -4 5 1434.2 76.8912 1
8 -4 -5 1515.28 59.7234 2
-8 -4 5 1475.17 56.6303 3
-8 4 5 1570.5 69.9561 1
8 4 -5 1326.35 102.08 1
7 -4 -5 301.316 26.2117 2
-7 -4 5 401.777 28.0856 3
-7 -4 5 332.92 39.5433 1
7 4 -5 308.02 43.3191 1
-7 4 5 318.597 42.3764 1
-6 -4 5 150.019 23.6448 3
6 -4 -5 134.434 18.0675 2
-6 -4 5 141.031 25.7386 1
6 4 -5 109.935 29.7626 1
-6 4 5 153.965 27.7399 1
5 -4 -5 23.1839 7.53281 2
-5 -4 5 24.7731 14.9941 1
-5 -4 5 16.3025 9.36889 3
5 4 -5 -3.8265 20.0553 1
-5 4 5 18.4944 18.6362 1
5 4 -5 4.2109 17.4415 2
-4 -4 5 807.853 46.1062 1
-4 -4 5 853.229 36.613 3
4 4 -5 860.235 50.7362 2
4 4 -5 861.843 57.1606 1
-3 -4 5 354.409 23.0215 3
-3 -4 5 378.101 30.2718 1
3 4 -5 419.21 39.8461 1
3 4 -5 384.176 36.4751 2
-2 -4 5 2190.69 70.1232 3
-2 -4 5 2171.64 76.7593 1
2 4 -5 2291.79 85.421 1
2 4 -5 2239.53 87.6935 2
-1 -4 5 393.142 24.8708 3
1 -4 -5 442.79 26.4916 3
-1 -4 5 479.195 29.2948 1
1 4 -5 453.311 40.4188 2
1 4 -5 396.654 36.9906 1
0 -4 5 411.108 25.463 1
0 -4 -5 406.018 24.7265 3
0 -4 5 425.711 26.3484 3
0 -4 5 413.195 33.9673 2
0 4 5 430.673 22.9147 2
0 4 -5 459.4 33.6148 1
0 4 -5 456.529 39.4622 2
-1 -4 -5 6.55373 8.25401 3
1 -4 5 11.8399 7.75141 1
1 -4 5 -6.0535 11.5948 2
1 -4 5 -7.4362 8.98286 3
-1 4 -5 21.8969 16.1069 2
-1 4 -5 -0.8136 14.182 1
2 -4 5 712.813 45.5675 2
2 -4 5 721.755 26.8674 1
-2 -4 -5 723.579 32.384 3
-2 4 -5 733.229 49.8412 2
3 -4 5 308.452 36.2718 2
-3 -4 -5 312.396 21.0282 3
-3 4 -5 292.861 38.869 2
4 -4 5 1920.61 83.9701 2
-4 -4 -5 1936.5 62.0758 3
-4 4 -5 1950.13 86.4177 2
-5 -4 -5 370.604 24.1014 3
5 -4 5 402.344 43.6467 2
-5 4 -5 389.517 46.0731 2
5 4 5 329.852 35.0881 1
-6 -4 -5 337.093 23.8636 3
6 -4 5 348.682 44.684 2
6 4 5 295.396 40.1808 1
-6 4 -5 314.385 44.0887 2
7 -4 5 27.2227 24.7839 2
-7 -4 -5 37.8822 13.0279 3
-7 4 -5 -19.28 24.2699 2
7 4 5 -3.2579 20.1489 1
8 -4 5 593.964 59.4986 2
-8 -4 -5 620.283 34.4895 3
-8 4 -5 580.692 59.9059 2
8 4 5 551.771 53.987 1
-9 -4 -5 105.216 17.4535 3
9 -4 5 122.275 37.1768 2
9 4 5 113.358 33.5358 1
-9 4 -5 120.643 34.8556 2
-10 -4 -5 1445.06 59.5202 3
10 -4 5 1620.05 100.416 2
10 4 5 1535.16 91.7061 1
-10 4 -5 1454.87 89.918 2
-11 -4 -5 95.5142 21.2075 3
11 -4 5 173.362 55.5029 2
11 4 5 157.423 47.1806 1
12 -4 5 9.46752 54.9964 2
-12 -4 -5 126.654 24.5065 3
12 4 5 199.754 59.7277 1
12 4 5 122.462 55.8554 2
-13 -4 -5 1.66081 19.944 3
13 -4 5 86.6809 65.2122 2
13 4 5 -54.017 57.6071 2
13 4 5 -98.118 61.5576 1
14 -4 5 139.23 84.567 2
-14 -4 -5 175.058 30.3573 3
14 4 5 129.334 77.8305 2
-15 -4 -5 70.168 29.9306 3
-16 -5 5 177.396 36.4713 3
15 -5 -5 120.374 76.4554 2
-15 -5 5 22.0076 23.6668 3
14 -5 -5 47.8951 55.6575 2
-14 -5 5 119.683 28.301 3
-14 5 5 100.11 35.5693 1
-13 -5 5 90.3181 29.5953 3
-13 -5 5 21.8508 52.2859 1
13 5 -5 105.417 83.5323 1
-13 5 5 110.335 33.1703 1
12 -5 -5 765.814 73.4663 2
-12 -5 5 592.221 70.0297 1
-12 -5 5 638.508 48.1166 3
12 5 -5 676.096 99.5312 1
-12 5 5 637.662 55.8736 1
-11 -5 5 551.229 63.8385 1
-11 -5 5 602.791 42.7723 3
11 -5 -5 601.328 61.8161 2
-11 5 5 597.644 53.9258 1
11 5 -5 575.308 87.1844 1
10 -5 -5 403.363 40.4301 2
-10 -5 5 410.376 50.8753 1
-10 -5 5 365.735 36.0138 3
10 5 -5 365.322 62.2896 1
-10 5 5 369.604 48.6018 1
9 -5 -5 315.627 38.1612 2
-9 -5 5 258.058 30.0677 3
-9 -5 5 245.084 39.0749 1
-9 5 5 306.121 39.0208 1
9 5 -5 290.425 57.8195 1
-8 -5 5 82.9093 29.5141 1
8 -5 -5 118.665 20.0737 2
-8 -5 5 134.858 24.1846 3
-8 5 5 94.2025 29.6304 1
8 5 -5 135.695 40.9765 1
7 -5 -5 498.026 30.461 2
-7 -5 5 449.548 52.0781 1
-7 -5 5 464.098 36.0269 3
-7 5 5 428.38 49.5752 1
7 5 -5 401.549 58.5707 1
7 5 -5 454.093 49.9696 2
-6 -5 5 1546.49 62.7924 3
6 -5 -5 1630.9 54.272 2
-6 -5 5 1710.13 77.4008 1
6 5 -5 1538.94 91.8086 1
-6 5 5 1644.01 73.3437 1
6 5 -5 1771.29 84.9405 2
-5 -5 5 760.751 40.621 3
-5 -5 5 782.336 49.3521 1
5 5 -5 716.395 63.3091 2
5 5 -5 661.014 63.3703 1
-4 -5 5 441.438 38.7073 1
-4 -5 5 564.507 36.1535 3
4 5 -5 518.688 48.8203 2
4 5 -5 615.979 56.4939 1
-4 5 5 568.714 28.7954 2
-3 -5 5 604.656 39.649 1
-3 -5 5 599.956 37.7833 3
3 5 -5 621.063 50.7624 2
3 5 -5 534.009 51.2917 1
-2 -5 5 8.19633 14.8476 3
-2 -5 5 13.8197 13.2938 1
2 5 -5 -21.679 18.0843 2
2 5 -5 -2.0013 21.227 1
-2 5 5 10.8563 11.4069 2
1 -5 -5 549.629 37.7669 3
-1 -5 5 561.923 35.6077 3
-1 -5 5 558.172 32.6239 1
1 5 -5 434.979 47.454 2
1 5 -5 455.301 43.1226 1
-1 5 5 513.816 30.2343 2
0 -5 -5 1366.1 56.3882 3
0 -5 5 1399.89 51.4484 1
0 -5 5 1406.78 58.3775 3
0 5 -5 1377.83 73.8124 2
0 5 5 1426.95 52.3868 2
0 5 -5 1424.26 63.6563 1
1 -5 5 932.934 47.8733 3
1 -5 5 1032.68 56.7789 2
-1 -5 -5 862.401 47.1631 3
-1 5 -5 942.753 62.6143 2
1 5 5 930.819 42.4355 2
-1 5 -5 909.832 47.8396 1
2 -5 5 1101.55 60.8204 2
-2 5 -5 1035.69 66.2363 2
-3 -5 -5 244.179 28.7315 3
3 -5 5 264.931 38.6516 2
-3 5 -5 279.647 42.0156 2
3 5 5 276.148 37.0248 1
4 -5 5 -11.861 20.0009 2
-4 -5 -5 1.12973 14.3734 3
4 5 5 22.7131 22.9663 1
-4 5 -5 -8.0373 25.9682 2
5 -5 5 103.572 31.3338 2
-5 -5 -5 126.684 21.0505 3
5 5 5 84.453 25.4857 1
-5 5 -5 108.77 38.0054 2
6 -5 5 847.442 69.0218 2
-6 -5 -5 772.283 42.4198 3
6 5 5 917.625 62.7721 1
-6 5 -5 969.729 69.0177 2
-7 -5 -5 785.144 42.2129 3
7 -5 5 762.498 71.2536 2
7 5 5 769.675 65.1281 1
-7 5 -5 794.902 66.2748 2
-8 -5 -5 1050.24 51.3058 3
8 -5 5 988.278 82.8534 2
8 5 5 1019.67 74.6697 1
-8 5 -5 1086.44 80.3762 2
-9 -5 -5 177.102 24.0979 3
9 -5 5 224.055 51.1242 2
9 5 5 161.612 39.9903 1
-9 5 -5 207.585 48.5031 2
-10 -5 -5 24.7751 20.2384 3
10 -5 5 126.068 56.6535 2
10 5 5 32.5756 46.7607 1
-10 5 -5 19.7628 45.2361 2
-11 -5 -5 135.407 25.837 3
11 -5 5 84.0254 61.3267 2
11 5 5 97.4332 60.8274 1
-11 5 -5 146.217 52.3337 2
12 -5 5 424.609 78.3346 2
-12 -5 -5 507.106 48.7912 3
12 5 5 421.567 77.325 1
13 -5 5 372.28 89.3312 2
-13 -5 -5 347.5 41.7875 3
13 5 5 323.137 77.7044 2
-14 -5 -5 582.964 57.6223 3
-14 -6 5 79.8148 34.2994 3
13 -6 -5 570.159 78.3888 2
-13 -6 5 525.153 53.2878 3
-12 -6 5 -14.296 26.4783 3
12 -6 -5 48.6493 45.8677 2
12 6 -5 -5.0024 85.5317 1
-11 -6 5 66.5468 28.0116 3
11 -6 -5 60.6159 37.5203 2
11 6 -5 -29.501 78.5586 1
-10 -6 5 57.7239 26.4795 3
10 -6 -5 78.4101 29.864 2
10 6 -5 48.4928 69.5242 1
-9 -6 5 1052.44 59.068 3
9 -6 -5 1131.62 59.5171 2
9 6 -5 1177.74 116.126 1
9 6 -5 1235.68 93.785 2
-9 6 5 1072.54 62.744 1
-8 -6 5 16.7666 21.5998 3
8 -6 -5 34.3455 20.3521 2
8 6 -5 -27.999 46.7095 1
-8 6 5 -28.016 29.3871 1
8 6 -5 67.078 34.6481 2
-7 -6 5 684.127 45.3309 3
-7 -6 5 656.969 64.0638 1
-7 6 5 679.955 60.334 1
7 6 -5 593.717 81.9226 1
7 6 -5 538.16 58.3406 2
-6 -6 5 14.8722 19.605 3
-6 -6 5 30.3485 26.2904 1
6 6 -5 -26.37 29.5252 2
-6 6 5 51.0206 29.1442 1
6 6 -5 -27.492 39.727 1
-5 -6 5 50.4756 22.5319 3
5 6 -5 98.9407 38.6443 1
5 6 -5 47.3715 30.6065 2
-4 -6 5 38.2368 19.3049 3
4 6 -5 15.219 31.1781 1
4 6 -5 11.8383 28.5549 2
-3 -6 5 2185.08 82.0229 3
-3 6 5 2184.3 71.9737 2
3 6 -5 2175.33 101.209 2
3 6 -5 2052.53 97.7966 1
-2 -6 5 54.9096 18.7317 3
-2 6 5 71.2478 20.1111 2
2 6 -5 26.9247 32.0406 1
2 6 -5 76.6706 29.4906 2
-1 -6 5 895.177 51.9403 3
-1 6 5 973.571 46.8517 2
1 6 -5 908.557 66.2762 2
1 6 -5 917.916 63.2206 1
0 -6 5 31.3248 23.1976 3
0 -6 -5 7.94343 18.0941 3
0 6 5 27.9577 18.3338 2
0 6 -5 27.0684 26.8897 1
0 6 -5 13.5322 24.6449 2
-1 -6 -5 211.08 29.4478 3
1 -6 5 187.865 33.8384 3
1 6 5 226.823 28.4261 2
1 6 5 323.652 38.8115 1
-1 6 -5 250.972 30.7627 1
-1 6 -5 242.871 38.3108 2
-2 -6 -5 58.8943 19.0071 3
2 6 5 102.196 30.9078 1
2 6 5 129.181 24.9076 2
-2 6 -5 80.3439 33.7828 2
3 -6 5 1580.9 83.4185 2
-3 -6 -5 1618.52 66.0706 3
3 6 5 1647.5 80.7339 1
3 6 5 1534.25 70.2385 2
-3 6 -5 1668.96 93.4839 2
-4 -6 -5 75.3609 20.5492 3
4 -6 5 86.3372 35.008 2
-4 6 -5 82.7678 37.9642 2
4 6 5 61.8303 28.9646 1
-5 -6 -5 1232.26 58.9333 3
5 -6 5 1279.72 82.5847 2
-5 6 -5 1359.1 87.4946 2
5 6 5 1244.61 79.3864 1
-6 -6 -5 25.0245 21.4291 3
6 -6 5 39.3305 37.351 2
-6 6 -5 -90.638 37.0857 2
6 6 5 -8.9323 33.5508 1
-7 -6 -5 54.9908 22.3604 3
7 -6 5 -0.0249 40.3516 2
-7 6 -5 -6.9303 43.1557 2
7 6 5 26.4143 40.0899 1
8 -6 5 159.265 50.7169 2
-8 -6 -5 54.0065 25.2516 3
-8 6 -5 34.6243 48.4047 2
8 6 5 130.238 48.4194 1
-9 -6 -5 1071.77 61.0287 3
9 -6 5 878.717 108.169 2
9 6 5 1152.97 109.015 1
-9 6 -5 1053.5 103.808 2
10 -6 5 179.15 68.7518 2
-10 -6 -5 38.0253 29.106 3
10 6 5 16.1996 66.9214 1
-10 6 -5 -42.021 57.9977 2
11 -6 5 928.161 101.979 2
-11 -6 -5 793.664 61.3201 3
-11 6 -5 748.772 95.4587 2
-12 -6 -5 -1.9286 34.9587 3
12 -6 5 -223.51 83.5126 2
-13 -6 -5 45.0822 41.5607 3
-12 -7 5 833.661 69.1854 3
-11 -7 5 68.8767 31.0774 3
10 -7 -5 432.817 50.2292 2
-10 -7 5 387.307 46.0281 3
10 7 -5 463.196 108.4 1
10 7 -5 395.833 96.0503 2
-9 -7 5 -18.514 22.9414 3
9 7 -5 -80.016 57.1284 2
9 7 -5 -84.813 77.3688 1
-8 -7 5 11.8845 28.8276 3
8 7 -5 59.7748 53.6441 2
8 7 -5 11.6798 74.128 1
-7 -7 5 99.34 30.0584 3
7 7 -5 100.899 63.0749 1
-7 7 5 65.9441 39.1789 1
7 7 -5 95.9963 48.4587 2
-7 7 5 72.0379 27.6809 1
-6 -7 5 1075.69 62.7534 3
6 7 -5 901.937 105.264 1
6 7 -5 921.385 96.2003 2
-6 7 5 1080.83 60.3787 1
-6 7 5 1016.42 77.6354 1
-5 -7 5 37.6706 21.6302 3
-5 7 5 53.4352 41.2563 1
5 7 -5 1.36915 45.1651 2
5 7 -5 35.4085 52.1122 1
-5 7 5 27.0974 26.3104 1
-4 -7 5 993.406 59.5393 3
-4 7 5 915.462 60.8588 1
4 7 -5 1187.84 92.5808 2
-4 7 5 862.445 51.0886 2
4 7 -5 985.761 91.0765 1
-3 -7 5 14.7047 24.785 3
-3 7 5 39.0384 29.4019 1
-3 7 5 -17.145 23.3315 2
3 7 -5 27.921 42.5953 1
3 7 -5 17.0639 38.3425 2
-2 -7 5 22.7984 23.0275 3
2 7 -5 -52.586 36.2081 1
2 7 -5 43.3062 39.0352 2
-2 7 5 -4.0695 24.6973 2
-2 7 5 -14.514 29.032 1
-1 -7 5 253.202 37.8216 3
1 7 -5 192.224 42.8494 1
-1 7 5 208.646 36.9996 1
-1 7 5 177.12 32.2925 2
1 7 -5 151.44 43.2052 2
0 -7 -5 1123.73 62.2342 3
0 -7 5 954.126 60.8198 3
0 7 5 944.043 61.3411 2
0 7 -5 812.922 79.6271 2
0 7 -5 948.218 72.2002 1
-1 -7 -5 122.539 28.7771 3
1 7 5 103.863 32.6624 2
-1 7 -5 148.063 33.5524 1
-1 7 -5 112.321 44.4297 2
1 7 5 151.039 35.3389 1
-2 -7 -5 1077.12 62.3605 3
-2 7 -5 1285.22 92.4638 2
2 7 5 1271.72 71.3823 2
2 7 5 1235.22 82.2191 1
-3 -7 -5 28.4886 26.5743 3
-3 7 -5 6.3236 45.9425 2
3 7 5 -12.987 38.8748 1
3 7 5 13.7731 30.8894 2
4 -7 5 -1.3094 40.1719 2
-4 -7 -5 2.31798 22.8696 3
-4 7 -5 105.343 48.2774 2
4 7 5 64.3827 42.1484 1
4 7 5 7.27024 35.4673 2
5 -7 5 49.4866 44.2074 2
-5 -7 -5 -42.827 28.2574 3
5 7 5 16.4941 38.4098 2
-5 7 -5 4.1553 49.9907 2
5 7 5 18.5138 45.9693 1
-6 -7 -5 872.895 61.0567 3
6 -7 5 904.725 93.9712 2
6 7 5 1097.88 100.401 1
-6 7 -5 935.999 101.023 2
-7 -7 -5 173.931 35.9658 3
7 -7 5 245.198 58.6975 2
-7 7 -5 118.65 63.4331 2
7 7 5 72.5695 61.8914 1
-8 -7 -5 705.285 58.5701 3
8 -7 5 723.076 88.8756 2
-8 7 -5 783.171 92.0952 2
8 7 5 476.014 85.7109 1
9 -7 5 122.516 70.2496 2
-9 -7 -5 99.8911 34.8672 3
-9 7 -5 109.628 72.6117 2
10 -7 5 84.4551 82.4688 2
-10 -7 -5 11.6231 34.9681 3
-10 7 -5 57.0415 86.5627 2
-11 -7 -5 46.1495 41.0444 3
-9 -8 5 368.992 59.4198 3
-8 -8 5 430.943 55.0331 3
8 8 -5 226.149 116.403 1
-7 -8 5 214.919 41.8549 3
7 8 -5 404.234 95.7904 2
7 8 -5 211.38 101.67 1
-6 -8 5 3.77281 26.9483 3
6 8 -5 74.2975 74.516 2
-6 8 5 8.96251 47.062 1
-6 8 5 -10.132 61.7364 1
6 8 -5 -58.831 78.2795 1
-5 -8 5 -8.2359 32.8195 3
5 8 -5 74.6776 78.4116 1
-5 8 5 78.0647 43.1652 1
5 8 -5 -74.083 63.6784 2
-5 8 5 -25.288 51.688 1
-4 -8 5 135.707 38.7866 3
-4 8 5 114.674 45.1735 1
4 8 -5 172.35 70.8501 2
4 8 -5 173.652 70.5415 1
-3 -8 5 474.422 57.9764 3
-3 8 5 383.686 55.5441 1
3 8 -5 469.991 77.3473 2
3 8 -5 375.772 73.7965 1
-2 -8 5 935.325 65.9968 3
2 8 -5 654.533 80.5579 2
-2 8 5 845.219 89.786 1
-2 8 5 718.449 65.5727 2
2 8 -5 753.212 80.7553 1
-1 -8 5 337.326 44.1046 3
-1 8 5 362.546 45.5292 2
1 8 -5 439.486 66.37 1
-1 8 5 384.719 57.3737 1
1 8 -5 272.443 66.6412 2
0 -8 5 139.616 36.5129 3
0 8 5 109.086 49.0858 1
0 8 5 103.781 43.9837 2
0 8 -5 196.983 70.5628 2
0 8 -5 197.635 52.7279 1
-1 -8 -5 76.7969 38.8107 3
-1 8 -5 16.1305 58.6696 2
1 8 5 81.0041 43.2345 2
1 8 5 -71.19 46.9618 1
-2 -8 -5 221.136 41.0452 3
2 8 5 321.696 54.1715 2
2 8 5 335.354 65.9217 1
-2 8 -5 352.493 74.1467 2
-3 -8 -5 455.346 56.8635 3
3 8 5 489.207 64.263 2
3 8 5 582.47 78.7801 1
-3 8 -5 553.357 89.1422 2
-4 -8 -5 342.521 50.4892 3
-4 8 -5 426.608 82.2914 2
4 8 5 282.212 74.6081 1
-5 -8 -5 157.603 39.6825 3
5 8 5 324.824 79.1631 1
-5 8 -5 255.907 84.5302 2
5 8 5 316.53 58.7362 2
-6 -8 -5 95.9407 38.9032 3
6 8 5 203.482 70.7771 2
-6 8 -5 330.551 89.348 2
6 8 5 -34.164 82.8774 1
7 -8 5 35.9495 70.3558 2
-7 -8 -5 5.56267 40.1136 3
-7 8 -5 82.2889 90.2503 2
7 8 5 110.275 67.9206 2
8 -8 5 168.556 96.6568 2
-8 -8 -5 145.82 44.7544 3
-8 8 -5 81.1115 108.621 2
8 8 5 79.0507 87.6583 2
-4 -9 5 12.8149 40.407 3
-3 -9 5 19.0545 42.8852 3
-2 -9 5 -8.4508 37.6181 3
1 9 -5 242.797 105.425 2
0 9 -5 295.805 99.313 2
0 9 5 18.316 84.4997 1
1 9 5 665.194 105.478 1
-1 9 -5 673.613 114.196 2
-2 -9 -5 80.9843 45.5923 3
-2 9 -5 -27.045 103.045 2
2 9 5 -98.526 94.9088 1
-3 -9 -5 225.91 59.1484 3
3 9 5 162.135 100.836 1
-3 9 -5 17.7218 129.695 2
18 0 -6 76.8186 115.944 1
-18 0 6 45.477 71.5918 1
-17 0 6 2.05434 60.1203 1
17 0 -6 -19.819 62.6352 2
17 0 -6 8.5891 99.0624 1
16 0 -6 456.391 92.2612 1
-16 0 6 751.288 95.3092 1
-15 0 6 -20.884 40.7687 1
15 0 -6 19.1851 58.2451 1
-14 0 6 746.932 75.486 1
14 0 -6 699.561 95.0354 1
13 0 -6 41.2254 44.0085 1
-13 0 6 -4.1837 29.7614 1
-12 0 6 19.5688 30.8158 1
10 0 -6 764.119 63.7475 1
-10 0 6 812.491 59.1696 1
-9 0 6 14.3186 22.3737 1
9 0 -6 -3.1793 23.7416 1
8 0 -6 2707.62 106.268 1
-8 0 6 2643.53 101.362 1
-7 0 6 17.7324 16.8097 1
7 0 -6 -12.559 16.2526 1
-6 0 6 98.759 21.7621 1
6 0 -6 100.663 20.0433 1
4 0 -6 7643.32 211.081 1
-4 0 6 7664.18 213.241 1
-3 0 6 -0.9551 10.2888 1
3 0 -6 7.49844 6.1222 2
2 0 -6 1318.37 46.1158 2
-2 0 6 1376.89 55.6306 1
-1 0 6 0.42038 6.58237 2
1 0 -6 -6.9268 6.02414 2
0 0 -6 24.3342 8.90315 2
0 0 6 27.14 8.75788 2
1 0 6 3.63407 7.50323 2
-1 0 -6 5.73892 8.86735 2
-2 0 -6 7310.17 192.833 2
2 0 6 7160.21 192.612 2
-3 0 -6 2.68544 9.2177 2
3 0 6 -14.246 8.43127 2
-4 0 -6 3607.42 112.673 2
4 0 6 3675.66 115.341 2
5 0 6 -2.3403 13.4523 2
-5 0 -6 8.71015 10.3905 2
6 0 6 332.797 35.5824 2
7 0 6 14.2739 16.6894 2
8 0 6 1744.83 84.6417 2
8 0 6 1747.13 68.8714 1
9 0 6 -53.46 21.2177 2
9 0 6 -1.4254 18.4402 1
10 0 6 2099.8 85.9678 1
10 0 6 2168.83 104.029 2
11 0 6 -43.286 30.7083 2
11 0 6 -10.594 25.1796 1
12 0 6 459.501 67.2651 1
12 0 6 384.776 55.5358 2
13 0 6 68.5923 41.8775 1
13 0 6 -11.505 45.304 2
14 0 6 692.445 73.6105 1
14 0 6 610.488 88.3393 2
15 0 6 75.7182 62.466 1
15 0 6 64.3569 68.5458 2
16 0 6 758.521 101.549 1
17 0 6 181.186 108.169 1
18 -1 -6 213.672 89.8109 2
18 -1 -6 226.605 120.164 1
-18 1 6 193.892 79.9585 1
17 -1 -6 329.416 81.1114 2
-17 -1 6 441.808 77.7383 1
17 -1 -6 555.711 106.224 1
-17 1 6 403.808 75.7479 1
17 1 -6 433.766 114.741 1
-16 -1 6 24.1346 54.8419 1
16 -1 -6 -29.221 67.2335 1
16 -1 -6 88.9594 58.039 2
16 1 -6 171.299 83.528 1
-16 1 6 6.62865 47.588 1
15 -1 -6 -24.713 57.2505 1
-15 -1 6 -9.238 43.5726 1
15 -1 -6 -27.121 44.5742 2
-15 1 6 80.0068 42.502 1
15 1 -6 -39.041 62.5601 1
-14 -1 6 117.368 41.5643 1
14 -1 -6 77.9779 38.8544 2
14 -1 -6 82.3272 51.0698 1
-14 1 6 33.5045 36.3515 1
14 1 -6 76.6846 57.0496 1
13 -1 -6 912.399 97.8152 1
-13 -1 6 1043.51 78.0446 1
13 1 -6 933.496 93.1957 1
-12 -1 6 251.34 42.9524 1
12 -1 -6 299.594 46.3697 1
-12 1 6 301.538 42.266 1
12 1 -6 177.401 45.8808 1
11 -1 -6 1972.42 98.6783 1
-11 -1 6 1768.97 89.6469 1
-11 1 6 1858.17 88.7461 1
11 1 -6 1784.21 105.151 1
-10 -1 6 524.799 50.9522 1
10 -1 -6 593.575 56.1134 1
-10 1 6 563.484 49.4704 1
10 1 -6 572.523 60.715 1
9 -1 -6 28.1199 23.645 1
-9 -1 6 32.3032 19.3447 1
9 1 -6 -19.71 22.4784 1
-9 1 6 -2.5755 17.8826 1
8 -1 -6 73.9751 25.196 1
-8 -1 6 36.2163 18.4284 1
8 1 -6 75.8996 25.4984 1
-8 1 6 44.6192 20.2557 1
-7 -1 6 1539.46 71.3314 1
7 -1 -6 1553.69 71.1017 1
-7 1 6 1589.56 71.4437 1
7 1 -6 1620.56 78.0337 1
-6 -1 6 1387.13 64.7649 1
6 -1 -6 1426.78 63.806 1
6 1 -6 1380.3 69.258 1
-6 1 6 1337.58 64.0558 1
-5 -1 6 4976.56 153.678 1
5 1 -6 5056.69 156.339 1
-5 1 6 5097.74 153.218 1
-4 -1 6 476.47 35.6333 1
-4 1 6 493.209 35.238 1
4 1 -6 483.732 37.8417 1
-3 -1 6 193.704 24.8739 1
3 -1 -6 195.896 12.8024 2
-3 1 6 200.213 25.2235 1
3 1 -6 165.854 18.5168 2
3 1 -6 130.077 19.3383 1
2 -1 -6 342.278 16.5393 2
-2 -1 6 322.304 27.6959 1
-2 -1 6 342.695 13.2485 3
2 1 -6 346.935 27.5066 1
2 1 -6 335.766 23.7261 2
-1 -1 6 981.77 27.5452 3
-1 -1 6 1028.11 41.1678 2
1 -1 -6 929.641 32.6428 2
-1 -1 6 969.488 44.4482 1
1 1 -6 959.632 41.9473 2
-1 1 6 945.522 31.3514 2
0 -1 6 838.516 38.0895 2
0 -1 6 805.966 37.9933 1
0 -1 -6 783.97 30.0559 2
0 1 -6 811.705 39.4065 2
0 1 -6 810.635 22.8824 3
0 1 6 839.199 31.2338 2
-1 -1 -6 3596.69 101.695 2
1 -1 6 3649.08 110.181 2
-1 1 -6 3850.68 91.4703 3
1 1 6 3717.72 103.51 2
-1 1 -6 3661.68 111.345 2
2 -1 6 1045.29 48.1278 2
-2 -1 -6 1023.84 40.5935 2
2 1 6 1014.83 41.6705 2
-2 1 -6 1012.61 47.1782 2
-2 1 -6 1112.6 31.8861 3
3 -1 6 340.006 28.6208 2
-3 1 -6 296.298 27.5916 2
3 1 6 313.948 25.5698 2
4 -1 6 50.3339 14.5515 2
-4 1 -6 50.3665 16.3625 2
4 1 6 68.5869 16.7026 2
5 -1 6 1137.43 57.8782 2
-5 1 -6 1123.18 55.1755 2
5 1 6 1170.45 55.4915 2
6 -1 6 468.746 40.5322 2
-6 1 -6 478.09 38.8382 2
6 1 6 458.271 37.5177 2
7 -1 6 2011.23 88.4123 2
-7 1 -6 2114.99 84.6466 2
7 1 6 1948.97 83.7374 2
8 -1 6 491.741 47.3862 2
8 -1 6 499.421 34.5936 1
8 1 6 500.836 45.9809 2
8 1 6 498.353 41.2004 1
9 -1 6 44.5228 16.9395 1
9 -1 6 179.519 51.2284 2
9 1 6 59.7689 23.4987 2
9 1 6 46.034 20.1395 1
10 -1 6 21.7506 26.9165 2
10 -1 6 -17.595 18.5755 1
10 1 6 22.1487 27.6055 2
10 1 6 9.68252 23.5912 1
11 -1 6 1094.29 83.5211 2
11 -1 6 968.691 61.5239 1
11 1 6 942.252 77.45 2
11 1 6 879.793 67.2552 1
12 -1 6 354.232 45.9592 1
12 -1 6 404.59 61.8604 2
12 1 6 384.087 49.8596 1
13 -1 6 1054.5 105.962 2
13 -1 6 1089.22 83.2229 1
13 1 6 1239.36 103.838 2
13 1 6 1056.88 87.8437 1
14 -1 6 160.967 60.9236 2
14 -1 6 115.02 51.854 1
14 1 6 149.826 53.4526 1
14 1 6 91.6808 60.8664 2
15 -1 6 10.8357 60.4125 1
15 -1 6 147.684 71.2194 2
15 1 6 9.83935 65.4647 2
15 1 6 60.9221 65.011 1
16 -1 6 171.319 74.3292 1
16 1 6 -86.643 85.3385 1
17 -1 6 426.537 121.305 1
17 1 6 251.843 152.5 1
18 -2 -6 -25.429 114.371 1
-18 2 6 7.48532 70.4766 1
-17 -2 6 227.49 120.281 1
17 -2 -6 151.633 75.6647 2
17 -2 -6 113.229 94.2902 1
-17 2 6 84.0168 61.2533 1
-16 -2 6 265.799 61.9928 1
16 -2 -6 359.139 79.8678 1
16 -2 -6 244.089 62.2267 2
16 2 -6 176.849 89.5444 1
-16 2 6 195.832 52.8077 1
15 -2 -6 804.339 91.6746 2
15 -2 -6 674.951 81.2859 1
-15 -2 6 675.702 92.9537 1
15 2 -6 560.411 94.5997 1
-15 2 6 566.451 76.8356 1
14 -2 -6 277.222 50.6928 2
14 -2 -6 244.3 56.0808 1
-14 -2 6 245.701 49.4751 1
14 2 -6 252.698 67.9625 1
-14 2 6 273.683 46.3478 1
13 -2 -6 115.376 34.619 2
-13 -2 6 117.469 37.2868 1
13 -2 -6 162.301 47.8565 1
13 2 -6 45.5066 47.7135 1
-13 2 6 167.525 40.8365 1
-12 -2 6 -3.6552 28.5129 1
12 -2 -6 -19.808 31.1024 1
-12 2 6 -4.9144 27.1947 1
12 2 -6 8.57011 38.1119 1
11 -2 -6 502.657 44.1091 2
-11 -2 6 465.326 54.3619 1
11 -2 -6 507.705 57.9929 1
-11 2 6 541.451 55.0297 1
11 2 -6 575.192 67.7664 1
-10 -2 6 507.023 51.2713 1
10 -2 -6 566.927 41.0752 2
10 -2 -6 590.525 54.6838 1
10 2 -6 534.925 62.0769 1
-10 2 6 606.963 52.4079 1
-9 -2 6 2168.19 93.1409 1
9 -2 -6 2085 77.2493 2
9 2 -6 2078.91 100.882 1
-9 2 6 2139.53 89.6434 1
8 -2 -6 345.202 27.6092 2
-8 -2 6 300.032 37.3292 1
-8 2 6 320.265 39.9635 1
8 2 -6 296.904 44.338 1
7 -2 -6 303.071 23.3345 2
-7 -2 6 333.222 37.5023 1
7 2 -6 384.686 45.6489 1
-7 2 6 311.721 37.1129 1
-6 -2 6 43.7389 17.4143 1
6 -2 -6 14.6549 7.86957 2
6 2 -6 18.1511 19.7841 1
-6 2 6 28.8176 17.7476 1
5 -2 -6 498.228 22.1197 2
-5 -2 6 518.815 21.7689 3
-5 -2 6 471.353 37.7678 1
5 2 -6 510.87 41.8272 1
-5 2 6 504.737 38.6166 1
-4 -2 6 515.641 21.3924 3
-4 -2 6 490.979 36.5783 1
4 2 -6 475.616 33.5567 2
-4 2 6 490.171 36.2064 1
4 2 -6 524.587 39.6023 1
-3 -2 6 3748.54 96.4435 3
-3 -2 6 3713.31 118.335 1
3 2 -6 3576.56 113.945 2
-3 2 6 3821.2 98.9906 3
3 2 -6 3706.6 119.661 1
-2 -2 6 1339.81 57.2707 1
-2 -2 6 1373.09 40.8772 3
2 2 -6 1379.47 59.0472 1
2 2 -6 1362 56.0298 2
-2 2 6 1303.49 41.1148 3
-1 -2 6 1036.47 33.6363 3
-1 -2 6 1092.24 47.5124 1
-1 -2 6 1013.11 46.1725 2
1 2 -6 1003.81 48.4863 2
1 2 -6 1079.49 32.0169 3
-1 2 6 1014.88 32.022 3
1 2 -6 1073.43 48.1718 1
0 -2 6 326.35 25.4023 2
0 -2 -6 324.259 15.6551 3
0 -2 6 294.364 24.6907 1
0 -2 6 309.286 16.5178 3
0 2 -6 336.472 15.8651 3
0 2 6 307.989 15.5166 2
0 2 6 338.23 14.8071 3
1 -2 6 226.722 21.6848 1
-1 -2 -6 256.036 13.3557 3
1 -2 6 212.452 24.7329 2
-1 2 -6 267.581 27.5934 2
-1 2 -6 239.761 15.2989 3
1 2 6 233.968 16.8694 2
1 2 6 254.633 12.4972 3
2 -2 6 1862.69 72.5689 2
2 -2 6 1878.02 63.5927 1
-2 -2 -6 1907.53 52.1158 3
-2 2 -6 1906.74 54.8004 3
2 2 6 1916.86 62.1544 2
-2 2 -6 1903.72 74.8069 2
3 -2 6 1702.91 72.4397 2
-3 -2 -6 1858.01 50.9619 3
3 2 6 1781.14 63.9769 2
-3 2 -6 1936.1 56.2688 3
-3 2 -6 1872.86 74.8937 2
-4 -2 -6 1397.34 41.5896 3
4 -2 6 1416.73 65.3819 2
-4 2 -6 1428.23 48.7363 3
4 2 6 1403.94 57.4951 2
-4 2 -6 1316.94 63.5693 2
5 -2 6 1337.31 66.2391 2
-5 -2 -6 1474.92 43.5603 3
-5 2 -6 1425.05 67.9461 2
5 2 6 1414.22 61.1981 2
6 -2 6 0.13232 16.331 2
-6 2 -6 3.2125 14.7599 2
7 -2 6 427.251 26.9992 1
7 -2 6 415.482 44.7062 2
7 2 6 388.704 40.5051 2
-7 2 -6 351.394 43.0742 2
7 2 6 462.858 38.7978 1
8 -2 6 195.209 31.8717 2
8 -2 6 245.265 25.1377 1
-8 2 -6 230.745 34.0334 2
8 2 6 202.769 30.5231 1
8 2 6 229.609 37.1403 2
9 -2 6 1075.08 51.1003 1
9 -2 6 1166.06 78.3072 2
9 2 6 1211.58 71.0587 2
-9 2 -6 1080.11 67.0983 2
9 2 6 1134.24 69.4587 1
10 -2 6 502.263 64.5313 2
10 -2 6 530.106 42.2934 1
10 2 6 491.164 55.2703 1
10 2 6 535.779 60.641 2
11 -2 6 695.049 52.4509 1
11 -2 6 809.245 78.805 2
11 2 6 813.467 76.0358 2
11 2 6 845.883 67.0181 1
12 -2 6 57.201 33.2471 1
12 -2 6 97.6063 50.9012 2
12 2 6 136.933 39.3902 1
12 2 6 46.6778 42.4921 2
13 -2 6 82.3575 50.7386 2
13 -2 6 52.4945 37.8098 1
13 2 6 28.6389 44.1924 1
13 2 6 26.4066 47.4163 2
14 -2 6 100.843 66.9095 2
14 -2 6 74.8671 46.5625 1
14 2 6 85.4429 59.3975 1
14 2 6 78.0726 58.3892 2
15 -2 6 450.603 102.585 2
15 2 6 446.389 80.6503 2
16 2 6 20.44 157.533 1
17 -3 -6 -60.883 81.3627 2
-17 3 6 9.80872 60.0135 1
16 -3 -6 328.691 76.8899 2
-16 -3 6 195.6 76.8443 1
16 3 -6 202.334 136.692 1
-16 3 6 275.336 57.6488 1
15 -3 -6 96.9438 56.6207 2
-15 -3 6 -3.3354 53.2014 1
-15 3 6 40.4363 44.5894 1
15 3 -6 -113.86 77.3233 1
14 -3 -6 408.224 56.7942 2
-14 -3 6 352.371 60.5899 1
-14 3 6 394.319 54.0141 1
14 3 -6 346.979 82.7916 1
13 -3 -6 31.6907 35.7261 2
-13 -3 6 -40.139 37.0627 1
-13 3 6 -28.234 34.7711 1
13 3 -6 -129.36 48.5525 1
12 -3 -6 1265.85 73.9761 2
-12 -3 6 1305.09 83.9956 1
12 3 -6 1327.57 103.888 1
-12 3 6 1172.85 76.9123 1
-11 -3 6 0.7859 25.9588 1
11 -3 -6 -14.913 22.355 2
-11 3 6 45.4121 29.0327 1
11 3 -6 -26.811 33.1741 1
-10 -3 6 767.639 60.1248 1
10 -3 -6 740.98 47.3821 2
10 3 -6 664.962 72.9367 1
-10 3 6 747.405 56.0001 1
9 -3 -6 24.5917 16.832 2
-9 -3 6 -1.9926 19.6551 1
9 3 -6 -38.159 34.6348 1
-9 3 6 18.9986 24.6947 1
-8 -3 6 515.628 46.4966 1
-8 -3 6 390.775 29.3947 3
8 -3 -6 413.663 30.203 2
-8 3 6 411.1 45.3447 1
8 3 -6 422.981 52.9587 1
-7 -3 6 0.13795 7.39057 3
-7 -3 6 13.2346 18.4483 1
7 -3 -6 16.167 10.8299 2
-7 3 6 22.5197 22.225 1
7 3 -6 18.3056 23.6862 1
6 -3 -6 1959.97 60.734 2
-6 -3 6 2016.74 62.4087 3
-6 -3 6 1928.39 82.3294 1
-6 3 6 1990.46 80.716 1
6 3 -6 2049.84 91.1229 1
-5 -3 6 16.7903 7.88472 3
-5 -3 6 11.2143 13.8584 1
5 3 -6 31.9406 22.5934 1
5 3 -6 8.45729 13.7296 2
-5 3 6 10.6876 17.9171 1
-4 -3 6 1387.19 46.7169 3
-4 -3 6 1537.48 65.9945 1
4 3 -6 1384.87 64.3566 2
4 3 -6 1503.43 69.9021 1
-4 3 6 1378.84 52.1725 3
-3 -3 6 188.005 26.2056 1
-3 -3 6 209.055 15.6677 3
3 3 -6 193.447 29.4483 1
-3 3 6 178.188 17.9577 3
3 3 -6 164.848 24.7883 2
-2 -3 6 601.065 37.6647 1
-2 -3 6 588.288 26.2521 3
2 3 -6 636.009 42.6172 1
-2 3 6 615.908 28.7728 3
2 3 -6 559.854 40.1938 2
2 3 -6 632.157 25.664 3
-1 -3 6 342.703 20.7732 3
-1 -3 6 423.27 32.4112 2
-1 -3 6 387.584 28.5162 1
1 3 -6 381.997 20.103 3
1 3 -6 358.27 34.3064 2
1 3 -6 396.1 33.5243 1
-1 3 6 357.046 21.9555 3
0 -3 -6 4971.99 130.54 3
0 -3 6 5012.54 141.296 1
0 -3 6 4913.47 131.855 3
0 -3 6 5034.58 150.16 2
0 3 -6 5026.28 141.985 1
0 3 -6 5123.88 154.2 2
0 3 -6 4968.57 128.368 3
0 3 6 4998.91 126.919 3
1 -3 6 -5.3089 9.25246 1
1 -3 6 16.5898 10.1004 3
1 -3 6 15.2756 12.2964 2
-1 -3 -6 11.2052 7.48922 3
1 3 6 11.5319 9.31783 3
1 3 6 29.8922 8.81642 2
-1 3 -6 16.8399 10.8297 3
-1 3 -6 3.80132 13.4865 2
2 -3 6 1653.36 71.0978 2
2 -3 6 1631.14 56.5769 1
-2 -3 -6 1706.05 51.3871 3
-2 3 -6 1665.49 73.0788 2
2 3 6 1666.98 55.7325 2
-2 3 -6 1655.85 53.7109 3
-3 -3 -6 17.7722 7.48014 3
3 -3 6 27.9285 14.7224 2
3 -3 6 19.9744 9.41001 1
-3 3 -6 50.5876 14.9029 3
3 3 6 8.76813 10.733 2
-3 3 -6 17.7194 15.4184 2
4 -3 6 774.741 31.8177 1
-4 -3 -6 842.438 31.0584 3
4 -3 6 829.946 51.1289 2
4 3 6 800.542 41.5361 2
-4 3 -6 777.144 51.695 2
-5 -3 -6 48.1856 9.64621 3
5 -3 6 47.1679 20.0223 2
5 3 6 52.3559 16.4296 2
-5 3 -6 43.3857 20.807 2
-6 -3 -6 4166.31 111.614 3
6 -3 6 4251.4 146.452 2
6 3 6 3907.81 129.555 2
-6 3 -6 4134.42 143.255 2
7 -3 6 429.834 49.0217 2
-7 -3 -6 391.365 23.5764 3
7 3 6 446.765 41.172 1
-7 3 -6 533.265 49.0663 2
7 3 6 442.968 43.8059 2
8 -3 6 658.386 71.2309 2
8 -3 6 749.659 33.3189 1
-8 -3 -6 695.739 33.8207 3
8 3 6 805.678 56.4196 2
8 3 6 759.908 56.3841 1
-8 3 -6 709.715 63.4331 2
-9 -3 -6 91.081 16.0514 3
9 -3 6 92.4794 18.0044 1
9 -3 6 78.5994 33.7573 2
9 3 6 105.005 34.2439 2
-9 3 -6 177.237 36.4655 2
9 3 6 128.93 28.9087 1
10 -3 6 57.5631 31.9661 2
10 -3 6 38.0603 19.9325 1
-10 -3 -6 41.8532 14.2658 3
-10 3 -6 44.7979 33.2822 2
10 3 6 9.89354 29.3134 1
10 3 6 109.109 38.2595 2
11 -3 6 17.1017 22.8264 1
11 -3 6 27.1247 37.7271 2
11 3 6 22.4453 34.6178 1
11 3 6 77.0316 36.9882 2
12 -3 6 1233.06 108.288 2
12 -3 6 1412.33 70.5321 1
12 3 6 1340.87 106.699 2
12 3 6 1319.5 100.402 1
13 -3 6 -68.842 56.3788 2
13 -3 6 -72.402 37.4414 1
13 3 6 -28.876 53.5144 2
13 3 6 78.3327 58.4192 1
14 -3 6 623.052 61.5681 1
14 -3 6 488.711 86.3369 2
14 3 6 585.772 91.8454 1
14 3 6 676.194 92.7206 2
-17 -4 6 34.3307 28.7977 3
17 -4 -6 140.513 100.243 2
16 -4 -6 141.036 78.992 2
-16 -4 6 116.029 24.9974 3
-16 4 6 65.5367 63.5893 1
-15 -4 6 637.24 47.9804 3
15 -4 -6 595.47 78.1515 2
-15 4 6 728.526 79.9397 1
-14 -4 6 164.696 26.6963 3
-14 -4 6 147.497 56.4158 1
14 -4 -6 283.446 56.5254 2
14 4 -6 215.106 78.9106 1
-14 4 6 217.509 46.9446 1
-13 -4 6 203.701 51.2014 1
13 -4 -6 161.924 42.6779 2
-13 -4 6 164.543 26.2475 3
13 4 -6 89.7621 69.3378 1
-13 4 6 163.324 39.2228 1
12 -4 -6 90.34 33.8451 2
-12 -4 6 3.31213 15.4283 3
-12 -4 6 -24.612 38.2669 1
12 4 -6 -25.341 49.9535 1
-12 4 6 25.2073 33.7338 1
-11 -4 6 332.89 31.0007 3
11 -4 -6 366.263 41.8994 2
-11 -4 6 439.727 57.9762 1
11 4 -6 256.99 53.8227 1
-11 4 6 365.251 47.1729 1
-10 -4 6 114.377 21.3396 3
10 -4 -6 135.185 25.2814 2
-10 -4 6 103.863 33.5753 1
-10 4 6 67.2774 31.8453 1
10 4 -6 60.1423 41.7886 1
-9 -4 6 1864.75 69.2258 3
-9 -4 6 1885.7 91.249 1
9 -4 -6 2011.4 72.3728 2
9 4 -6 2102.78 111.56 1
-9 4 6 1886.24 85.5587 1
8 -4 -6 214.54 25.1603 2
-8 -4 6 228.018 26.91 3
8 4 -6 171.201 47.8448 1
-8 4 6 242.92 35.9074 1
7 -4 -6 347.411 24.0766 2
-7 -4 6 314.901 38.882 1
-7 -4 6 340.157 28.3013 3
-7 4 6 355.656 46.5719 1
7 4 -6 314.932 47.2174 1
-6 -4 6 90.9596 17.2884 3
-6 -4 6 109.522 26.9976 1
6 4 -6 97.5453 22.8105 2
-6 4 6 138.257 29.1632 1
6 4 -6 99.0637 33.145 1
-5 -4 6 482.9 40.2129 1
-5 -4 6 404.033 26.1385 3
-5 4 6 446.049 42.3596 1
5 4 -6 415.588 43.0867 2
5 4 -6 433.726 49.053 1
-4 -4 6 217.003 19.578 3
-4 -4 6 201.368 25.609 1
4 4 -6 190.901 34.4519 1
4 4 -6 170.819 28.2661 2
-3 -4 6 2711.92 98.3284 1
-3 -4 6 2925.55 85.6999 3
3 4 -6 2862.03 105.428 2
3 4 -6 2899.84 106.693 1
-2 -4 6 402.016 32.3841 1
-2 -4 6 415.36 25.2664 3
2 4 -6 391.71 41.9019 2
2 4 -6 450.819 41.0873 1
-1 -4 6 998.009 46.1597 1
1 -4 -6 965.478 40.7121 3
-1 -4 6 942.029 39.7555 3
1 4 -6 1055.01 59.4082 2
1 4 -6 1029.17 53.6684 1
0 -4 -6 79.1513 13.8321 3
0 -4 6 120.015 16.8866 1
0 -4 6 115.101 16.7233 3
0 -4 6 90.3232 18.2474 2
0 4 -6 91.7416 19.5728 1
0 4 6 90.6956 11.2949 2
0 4 -6 112.629 25.8623 2
1 -4 6 223.766 30.6425 2
1 -4 6 217.455 20.4239 1
1 -4 6 210.771 20.9198 3
-1 -4 -6 198.31 19.0708 3
-1 4 -6 176.11 29.1006 2
2 -4 6 348.132 21.6182 1
2 -4 6 353.408 35.8333 2
-2 -4 -6 378.491 23.2296 3
-2 4 -6 415.645 43.4105 2
-3 -4 -6 2029.04 63.1767 3
3 -4 6 1931.29 83.8947 2
-3 4 -6 1896.33 88.0385 2
4 -4 6 485.057 46.0265 2
-4 -4 -6 511.717 26.7063 3
-4 4 -6 531.064 49.8164 2
-5 -4 -6 942.959 38.9512 3
5 -4 6 991.179 64.0784 2
-5 4 -6 944.039 64.5488 2
-6 -4 -6 25.2852 12.4754 3
6 -4 6 55.5487 25.8059 2
6 4 6 91.011 26.2547 1
-6 4 -6 14.5884 27.4694 2
-7 -4 -6 22.6162 13.0154 3
7 -4 6 0.46859 26.0213 2
7 4 6 29.4625 22.7302 1
-7 4 -6 86.4807 30.6887 2
8 -4 6 256.759 47.6038 2
-8 -4 -6 218.631 24.7822 3
-8 4 -6 205.442 39.1269 2
8 4 6 173.246 31.174 1
-9 -4 -6 1685.61 62.6765 3
9 -4 6 1776.2 104.519 2
9 4 6 1498.24 88.5388 1
-9 4 -6 1649.32 91.7716 2
9 4 6 1669.54 90.2676 2
-10 -4 -6 118.98 20.4568 3
10 -4 6 173.378 47.7355 2
10 4 6 160.735 43.2055 2
10 4 6 127.589 39.3391 1
-10 4 -6 181.499 48.0529 2
11 -4 6 499.446 77.4695 2
-11 -4 -6 486.127 38.2431 3
-11 4 -6 547.556 63.9743 2
11 4 6 550.333 68.296 1
11 4 6 546.671 71.0803 2
-12 -4 -6 33.8378 20.1739 3
12 -4 6 90.2591 61.2991 2
12 4 6 3.28996 55.2734 2
12 4 6 136.711 57.5905 1
-13 -4 -6 80.4026 25.1382 3
13 -4 6 90.5775 70.1962 2
13 4 6 123.765 76.7731 1
13 4 6 9.38311 60.7811 2
14 4 6 117.479 74.5973 2
-15 -4 -6 452.213 45.4762 3
-16 -5 6 89.288 29.8667 3
15 -5 -6 36.019 69.979 2
-15 -5 6 8.95427 23.6302 3
14 -5 -6 62.8642 57.1267 2
-14 -5 6 38.3234 20.518 3
-14 5 6 75.5715 41.2748 1
-13 -5 6 352.06 38.6808 3
-13 -5 6 358.948 67.0796 1
13 -5 -6 458.29 57.799 2
13 5 -6 196.302 93.8351 1
-13 5 6 504.058 67.2292 1
12 -5 -6 688.227 67.4903 2
-12 -5 6 494.422 43.8983 3
-12 -5 6 435.611 66.5214 1
12 5 -6 663.091 98.2397 1
-12 5 6 558.035 64.109 1
11 -5 -6 478.341 56.2106 2
-11 -5 6 460.085 58.8672 1
-11 -5 6 582.29 43.2605 3
-11 5 6 642.466 65.5379 1
11 5 -6 521.974 83.2132 1
10 -5 -6 286.804 32.1293 2
-10 -5 6 383.747 35.2428 3
-10 -5 6 298.16 49.998 1
-10 5 6 321.934 44.2623 1
10 5 -6 252.052 63.7824 1
-9 -5 6 -4.1507 13.9916 3
9 -5 -6 27.5467 19.8333 2
-9 -5 6 19.8673 31.0802 1
-9 5 6 30.6584 32.748 1
9 5 -6 26.8168 43.5573 1
8 -5 -6 -8.5842 15.4505 2
-8 -5 6 0.62658 15.1114 3
-8 -5 6 -18.936 27.044 1
-8 5 6 -10.112 27.631 1
8 5 -6 -86.347 35.4752 1
8 5 -6 27.0115 27.0009 2
-7 -5 6 1237.98 54.5434 3
7 -5 -6 1211.84 43.5082 2
-7 -5 6 1096.79 69.3929 1
-7 5 6 1225.89 72.1487 1
7 5 -6 1329.5 77.6091 2
7 5 -6 1227.6 85.9242 1
-6 -5 6 1107.1 51.4989 3
-6 -5 6 1191.21 66.4714 1
-6 5 6 1143.43 66.6306 1
6 5 -6 1212.79 82.2229 1
6 5 -6 1128.45 69.96 2
-5 -5 6 965.103 57.597 1
-5 -5 6 962.574 45.5161 3
5 5 -6 904.551 68.6068 1
5 5 -6 1060.3 65.2233 2
-4 -5 6 674.646 45.47 1
-4 -5 6 666.619 39.2138 3
4 5 -6 754.647 62.171 1
-3 -5 6 87.4158 20.4921 1
-3 -5 6 46.3116 16.3448 3
3 5 -6 63.6592 26.4339 1
3 5 -6 64.7453 26.6163 2
-2 -5 6 208.576 27.4221 1
-2 -5 6 185.406 24.7334 3
2 5 -6 227.199 34.3016 1
2 5 -6 278.709 41.9804 2
-1 -5 6 960.353 47.6073 3
-1 -5 6 1008.43 46.2257 1
1 5 -6 941.147 63.3801 2
1 5 -6 848.181 54.3506 1
0 -5 6 689.025 42.5065 3
0 -5 6 694.393 36.1957 1
0 -5 -6 688.721 38.5945 3
0 5 -6 760.343 57.4547 2
0 5 6 746.226 34.3611 2
0 5 -6 744.169 48.7696 1
1 -5 6 1595.1 74.3335 2
1 -5 6 1501.92 51.4763 1
-1 -5 -6 1388.26 58.5365 3
1 -5 6 1482.57 62.3313 3
-1 5 -6 1457.74 79.3932 2
1 5 6 1479.49 54.6633 2
-1 5 -6 1568.31 61.6106 1
2 -5 6 318.176 39.8553 2
-2 5 -6 393.367 48.9261 2
-3 -5 -6 41.9604 17.1058 3
3 -5 6 -20.755 21.2569 2
-3 5 -6 61.848 29.1776 2
4 -5 6 58.1689 37.7581 2
-4 -5 -6 19.8342 15.4287 3
-4 5 -6 -30.874 28.3912 2
4 5 6 -20.14 21.0038 1
-5 -5 -6 356.967 33.2178 3
5 -5 6 470.974 53.8751 2
-5 5 -6 422.761 55.6595 2
5 5 6 590.388 49.4384 1
6 -5 6 779.829 68.0105 2
-6 -5 -6 666.996 39.3625 3
-6 5 -6 705.264 66.4634 2
6 5 6 616.113 58.5106 1
-7 -5 -6 1398.92 58.1277 3
7 -5 6 1381.53 91.4754 2
-7 5 -6 1346.77 86.9902 2
7 5 6 1477.56 81.6167 1
-8 -5 -6 338.258 34.3811 3
8 -5 6 338.318 54.3705 2
-8 5 -6 407.757 50.4541 2
8 5 6 352.467 47.9547 1
9 -5 6 -74.124 43.0669 2
-9 -5 -6 -0.2823 18.6119 3
9 5 6 1.97548 37.7596 1
-9 5 -6 60.7427 44.6517 2
10 -5 6 64.2686 57.5554 2
-10 -5 -6 34.0525 22.57 3
-10 5 -6 106.438 50.7471 2
10 5 6 78.5335 52.7462 1
-11 -5 -6 300.62 36.7201 3
11 -5 6 502.294 85.731 2
11 5 6 300.206 68.1642 1
11 5 6 338.721 63.1398 2
-11 5 -6 373.172 66.8277 2
-12 -5 -6 352.436 38.7965 3
12 -5 6 226.867 80.4588 2
12 5 6 446.067 81.811 2
12 5 6 300.639 134.258 1
-13 -5 -6 711.558 59.8789 3
13 5 6 658.401 99.2193 2
-14 -5 -6 87.1085 35.2804 3
-14 -6 6 329.29 45.1816 3
-13 -6 6 -20.978 25.1124 3
12 -6 -6 58.6022 44.1733 2
-12 -6 6 59.2297 31.0552 3
12 6 -6 41.2015 90.4928 1
-11 -6 6 -21.293 52.6006 1
-11 -6 6 2.74254 24.9295 3
11 -6 -6 32.2722 32.8921 2
-11 6 6 -22.097 35.1304 1
11 6 -6 -7.6883 82.4388 1
-10 -6 6 785.067 84.0964 1
-10 -6 6 885.829 56.7665 3
10 -6 -6 820.305 53.1966 2
10 6 -6 663.086 92.311 1
-10 6 6 684.659 64.3696 1
10 6 -6 763.824 97.3873 2
9 -6 -6 29.1795 21.5168 2
-9 -6 6 53.2994 21.2061 3
-9 -6 6 -2.7846 38.1877 1
9 6 -6 89.9704 47.0945 2
9 6 -6 93.272 60.9169 1
-9 6 6 5.76519 38.0147 1
-8 -6 6 696.717 69.4188 1
-8 -6 6 660.33 47.6901 3
8 6 -6 690.474 81.2568 1
8 6 -6 772.302 82.6309 2
-8 6 6 648.575 68.2573 1
-7 -6 6 5.02484 19.2775 3
-7 -6 6 -26.793 29.4032 1
-7 6 6 -10.004 35.6018 1
7 6 -6 -88.749 32.8732 2
7 6 -6 95.7514 43.7706 1
-6 -6 6 -4.3052 17.4612 3
-6 -6 6 97.0817 29.6362 1
-6 6 6 -13.625 34.6671 1
6 6 -6 11.5943 39.7893 1
6 6 -6 73.0667 36.0771 2
-5 -6 6 23.4184 27.1259 1
-5 -6 6 0.51503 17.6132 3
5 6 -6 5.08539 29.7546 2
-4 -6 6 1511.36 72.1111 1
-4 -6 6 1414.73 65.3312 3
4 6 -6 1601.87 91.7094 1
4 6 -6 1465.26 88.0624 2
-3 -6 6 53.2607 21.6868 1
-3 -6 6 19.2985 22.0031 3
3 6 -6 -18.549 29.558 2
3 6 -6 -20.445 33.0748 1
-2 -6 6 1504.97 64.8828 3
-2 -6 6 1441.7 63.463 1
2 6 -6 1327.75 79.7061 1
2 6 -6 1454.15 85.1772 2
-1 -6 6 27.194 18.0612 3
1 6 -6 86.1038 30.6145 2
-1 6 6 29.2276 18.2722 2
1 6 -6 41.7665 29.2156 1
0 -6 6 15.8038 18.7122 3
0 -6 -6 15.883 18.1098 3
0 6 -6 18.9588 28.1962 2
0 6 6 19.4644 18.6358 2
0 6 -6 20.7211 27.3067 1
1 -6 6 80.2124 23.067 3
-1 -6 -6 88.4652 21.3682 3
-1 6 -6 134.178 26.6875 1
1 6 6 78.8157 21.7389 2
-1 6 -6 73.1297 30.7254 2
2 -6 6 1172.39 73.2923 2
-2 -6 -6 1222.21 57.0868 3
2 6 6 1199.99 57.4539 2
-2 6 -6 1293.03 81.3474 2
2 6 6 1149.89 69.103 1
3 -6 6 87.6386 31.7099 2
-3 -6 -6 83.8059 22.2102 3
3 6 6 136.984 28.5763 2
3 6 6 140.889 31.3994 1
-3 6 -6 126.571 37.5331 2
-4 -6 -6 1487.87 63.6539 3
4 -6 6 1563.33 88.8956 2
-4 6 -6 1495.72 94.6787 2
4 6 6 1357.49 81.5819 1
-5 -6 -6 3.4966 18.9873 3
5 -6 6 13.0829 32.4954 2
-5 6 -6 17.5656 38.7149 2
5 6 6 -12.78 29.3699 1
6 -6 6 116.366 41.9053 2
-6 -6 -6 94.3492 21.5739 3
-6 6 -6 136.51 44.4826 2
6 6 6 96.8484 40.2621 1
7 -6 6 59.1994 44.899 2
-7 -6 -6 -12.001 20.4207 3
-7 6 -6 -8.5496 46.3173 2
7 6 6 37.6339 39.716 1
8 -6 6 731.154 98.9087 2
-8 -6 -6 763.962 50.9152 3
-8 6 -6 702.557 80.152 2
8 6 6 606.972 71.0245 1
9 -6 6 73.9142 59.5239 2
-9 -6 -6 28.8787 29.3779 3
-9 6 -6 7.35596 58.6628 2
9 6 6 85.7591 56.4261 1
-10 -6 -6 1170.27 68.8398 3
10 -6 6 1336.82 138.928 2
-10 6 -6 1391.05 130.801 2
-11 -6 -6 13.6447 30.8978 3
11 -6 6 17.3723 78.4102 2
11 6 6 -26.414 72.15 2
-11 6 -6 133.745 77.0017 2
-12 -6 -6 53.0993 35.8494 3
12 6 6 -80.991 84.1293 2
-12 -7 6 -11.311 31.0582 3
-11 -7 6 766.122 63.133 3
-10 -7 6 24.5313 29.9005 3
10 7 -6 30.7239 101.518 1
-9 -7 6 -3.5405 26.1975 3
9 7 -6 31.3591 81.1682 1
9 7 -6 35.9862 66.6884 2
-8 -7 6 38.9125 26.7824 3
8 7 -6 75.2669 71.5725 1
8 7 -6 87.1707 62.9729 2
-8 7 6 17.1582 45.2478 1
-7 -7 6 620.719 52.14 3
7 7 -6 699.518 82.6376 2
7 7 -6 591.933 89.2041 1
-7 7 6 764.474 82.4819 1
-6 -7 6 37.0051 25.2874 3
6 7 -6 61.2522 55.0584 1
6 7 -6 -54.724 46.0204 2
-6 7 6 18.1421 43.5148 1
-5 -7 6 1206.23 67.2908 3
5 7 -6 1206.77 106.299 1
5 7 -6 1164.98 106.29 2
-4 -7 6 26.3596 26.0265 3
4 7 -6 54.9681 47.7545 1
4 7 -6 75.8948 52.7324 2
-3 -7 6 73.6586 26.5054 3
3 7 -6 79.567 44.2843 1
3 7 -6 62.1318 42.6525 2
-2 -7 6 52.5444 26.024 3
2 7 -6 66.9584 39.5333 2
-2 7 6 85.1448 33.7758 1
2 7 -6 23.9164 44.0476 1
-1 -7 6 625.259 52.0238 3
1 7 -6 696.806 80.8939 2
1 7 -6 573.498 72.2732 1
0 -7 -6 204.564 37.0371 3
0 -7 6 186.363 34.764 3
0 7 -6 221.556 41.4958 1
0 7 -6 176.469 46.0266 2
0 7 6 248.909 42.8185 1
0 7 6 186.295 31.1762 2
-1 -7 -6 1341.04 69.0887 3
1 7 6 1258.18 79.5972 1
-1 7 -6 1294.48 101.921 2
1 7 6 1432.03 68.2492 2
-2 -7 -6 35.5552 26.3977 3
-2 7 -6 37.3326 44.8207 2
2 7 6 77.3625 38.3895 1
2 7 6 32.2307 31.0947 2
-3 -7 -6 54.7426 26.0822 3
3 7 6 51.4472 32.1421 2
3 7 6 51.4311 38.218 1
-3 7 -6 25.28 52.5888 2
4 -7 6 -45.235 40.7246 2
-4 -7 -6 -5.595 27.0263 3
4 7 6 -10.071 43.1238 1
4 7 6 -1.3311 34.3594 2
-4 7 -6 20.8353 52.7444 2
5 -7 6 478.994 65.3904 2
-5 -7 -6 421.278 48.3187 3
-5 7 -6 640.33 78.4249 2
5 7 6 351.181 62.8633 1
5 7 6 387.377 52.185 2
6 -7 6 135.256 59.4962 2
-6 -7 -6 114.714 30.4682 3
6 7 6 125.45 54.5598 1
-6 7 -6 63.405 62.5179 2
-7 -7 -6 1051.3 67.2889 3
7 -7 6 978.205 114.848 2
7 7 6 1214.02 121.14 1
-7 7 -6 846.414 118.049 2
8 -7 6 114.439 67.7816 2
-8 -7 -6 57.2926 33.0794 3
8 7 6 45.0595 73.2971 1
-8 7 -6 62.8016 76.6473 2
9 -7 6 66.0466 70.8088 2
-9 -7 -6 53.6151 34.0586 3
-9 7 -6 139.459 85.3921 2
-10 -7 -6 14.263 39.1868 3
-9 -8 6 387.938 61.9331 3
8 8 -6 79.665 108.518 1
-7 -8 6 100.457 34.3938 3
7 8 -6 13.0975 100.002 1
-6 -8 6 18.5493 33.9188 3
-6 8 6 -34.579 54.0104 1
6 8 -6 -205.86 84.2693 1
-6 8 6 29.4341 70.1164 1
6 8 -6 42.2059 79.9899 2
-5 -8 6 91.4596 32.9144 3
5 8 -6 158.144 80.0091 2
5 8 -6 -37.488 75.8622 1
-5 8 6 96.6597 49.041 1
-5 8 6 64.3763 62.1377 1
-4 -8 6 216.686 41.047 3
4 8 -6 265.646 72.9033 1
-4 8 6 186.786 53.3751 1
4 8 -6 163.8 73.5619 2
-3 -8 6 717.119 61.1384 3
3 8 -6 598.975 85.6855 1
3 8 -6 668.581 84.0318 2
-2 -8 6 372.252 51.9769 3
2 8 -6 501.076 73.5553 1
2 8 -6 411.54 75.0503 2
-2 8 6 453.881 57.5755 1
-1 -8 6 298.164 49.4016 3
-1 8 6 131.892 53.9927 1
1 8 -6 311.502 63.4902 1
1 8 -6 329.469 73.9154 2
0 8 6 -27.231 39.4776 2
0 8 -6 -37.38 48.1468 1
0 8 -6 -3.496 60.9949 2
0 8 6 7.36664 49.4662 1
-1 -8 -6 22.053 38.2779 3
1 8 6 53.3819 59.0657 1
-1 8 -6 5.05168 66.1655 2
1 8 6 98.9752 41.9756 2
-2 -8 -6 316.946 46.5144 3
2 8 6 378.08 55.5141 2
2 8 6 445.28 69.0175 1
-2 8 -6 459.354 82.7599 2
-3 -8 -6 390.913 50.6702 3
-3 8 -6 314.442 83.8529 2
3 8 6 435.23 71.2051 1
3 8 6 404.151 57.4945 2
-4 -8 -6 463.126 52.2465 3
-4 8 -6 311.641 81.5138 2
4 8 6 379.908 61.5701 2
4 8 6 381.391 80.3292 1
-5 -8 -6 193.457 44.688 3
-5 8 -6 242.612 90.2984 2
5 8 6 186.055 60.0971 2
5 8 6 370.152 87.7528 1
6 -8 6 52.3116 72.1583 2
-6 -8 -6 -74.23 35.5875 3
-6 8 -6 -104.77 88.1181 2
6 8 6 37.1311 66.2808 2
-7 -8 -6 -4.4617 43.0366 3
7 8 6 18.4307 75.8443 2
-8 -8 -6 337.14 58.3971 3
-3 -9 6 -79.516 43.4772 3
-2 -9 6 213.697 53.1045 3
0 9 6 667.729 104.71 1
1 9 6 147.657 95.4436 1
-2 -9 -6 313.745 56.2524 3
2 9 6 534.883 108.428 1
-18 0 7 73.4488 78.204 1
18 0 -7 112.832 130.581 1
-17 0 7 869.837 117.228 1
17 0 -7 564.243 87.8419 2
17 0 -7 426.088 108.993 1
-16 0 7 -30.804 47.8038 1
16 0 -7 -69.615 74.502 1
-15 0 7 796.068 84.9952 1
15 0 -7 852.81 99.676 1
14 0 -7 4.58949 53.0511 1
-14 0 7 9.07728 38.9829 1
13 0 -7 82.19 45.3383 1
-13 0 7 98.0828 40.8553 1
12 0 -7 -50.965 34.8664 1
-12 0 7 11.125 28.5898 1
-11 0 7 1111.72 71.3639 1
11 0 -7 997.593 80.2243 1
10 0 -7 1.02979 28.1126 1
-10 0 7 11.1957 24.8996 1
-9 0 7 1678.07 81.3638 1
9 0 -7 1620.18 85.5243 1
-8 0 7 -27.768 17.0992 1
8 0 -7 -0.7739 20.6927 1
-7 0 7 132.237 29.0417 1
7 0 -7 143.822 28.1522 1
-6 0 7 7.27105 16.2845 1
6 0 -7 4.18187 15.8835 1
5 0 -7 993.769 53.5814 1
-5 0 7 924.442 52.7297 1
4 0 -7 7.62695 7.17714 2
-4 0 7 -8.03 14.1843 1
-3 0 7 5249.88 156.324 1
3 0 -7 5219.43 141.335 2
2 0 -7 -1.12 7.33012 2
-2 0 7 -1.9377 10.7975 1
1 0 -7 354.324 24.1888 2
-1 0 7 356.817 21.99 2
0 0 7 21.6966 9.43966 2
0 0 -7 13.3103 8.72252 2
1 0 7 3554.36 107.195 2
-1 0 -7 3627.68 107.127 2
-2 0 -7 -8.3997 9.42554 2
2 0 7 -4.7053 8.77552 2
-3 0 -7 4773.09 140.114 2
3 0 7 4846.53 143.327 2
-4 0 -7 -7.362 11.5596 2
4 0 7 -4.6344 10.6712 2
-5 0 -7 618.289 40.4894 2
5 0 7 632.553 44.0206 2
6 0 7 17.8417 16.0171 2
7 0 7 713.656 55.1712 2
8 0 7 -27.529 15.1493 1
8 0 7 -15.85 21.7105 2
9 0 7 2351.52 127.549 2
9 0 7 2684.78 95.6808 1
10 0 7 73.8329 31.6282 2
10 0 7 14.2644 22.0413 1
11 0 7 777.522 78.5123 2
11 0 7 782.243 57.2048 1
12 0 7 44.0116 41.6322 2
12 0 7 -28.784 30.8616 1
13 0 7 310.328 47.4461 1
13 0 7 307.18 66.7087 2
14 0 7 25.4107 50.2155 1
14 0 7 35.03 66.7972 2
15 0 7 770.939 117.018 2
15 0 7 865.274 116.776 1
16 0 7 -4.6644 86.1631 1
17 0 7 337.123 121.419 1
18 -1 -7 434.207 99.8618 2
18 -1 -7 569.841 136.869 1
-18 1 7 684.402 96.8045 1
17 -1 -7 48.476 100.949 1
-17 -1 7 126.297 71.1376 1
17 -1 -7 151.609 71.0921 2
17 1 -7 235.499 102.485 1
-17 1 7 186.725 67.4927 1
16 -1 -7 0.25852 76.5732 1
16 -1 -7 -37.927 56.6509 2
-16 -1 7 25.4853 59.9819 1
-16 1 7 186.187 57.1086 1
16 1 -7 183.881 88.7443 1
15 -1 -7 138.572 48.1942 2
-15 -1 7 96.4688 48.5276 1
15 -1 -7 106.408 65.0284 1
-15 1 7 -7.958 49.4477 1
15 1 -7 191.593 78.4073 1
-14 -1 7 358.251 59.168 1
14 -1 -7 436.62 56.2759 2
14 -1 -7 397.547 68.389 1
14 1 -7 327.492 72.2417 1
-14 1 7 368.633 55.4984 1
-13 -1 7 444.017 56.5707 1
-13 1 7 395.857 52.7813 1
13 1 -7 439.991 67.5785 1
-12 -1 7 1335.44 84.795 1
12 -1 -7 1364.73 96.5322 1
12 1 -7 1372.81 100.168 1
-12 1 7 1365.52 83.3725 1
11 -1 -7 73.7437 38.0759 1
-11 -1 7 51.9701 33.4138 1
-11 1 7 143.115 33.6867 1
11 1 -7 84.5184 42.06 1
10 -1 -7 416.685 56.3406 1
-10 -1 7 297.219 41.7687 1
-10 1 7 314.138 43.7785 1
10 1 -7 371.49 52.8124 1
-9 -1 7 170.624 32.9316 1
9 -1 -7 263.214 39.4366 1
9 1 -7 181.465 31.5902 1
-9 1 7 187.746 33.489 1
-8 -1 7 981.937 60.3324 1
8 -1 -7 915.486 59.306 1
8 1 -7 996.44 65.1992 1
-8 1 7 963.268 61.8075 1
7 -1 -7 1186.71 61.9711 1
-7 -1 7 1111.46 62.3692 1
-7 1 7 1159.3 63.1422 1
7 1 -7 1125.27 66.3866 1
-6 -1 7 4233.45 142.7 1
6 1 -7 4376.98 145.702 1
-6 1 7 4428.79 142.753 1
-5 -1 7 321.058 34.7913 1
5 1 -7 249.59 34.2244 1
-5 1 7 295.826 34.3474 1
4 -1 -7 232.335 16.271 2
-4 -1 7 218.603 29.3304 1
4 1 -7 221.462 22.1258 2
4 1 -7 226.192 29.7279 1
-4 1 7 213.184 28.3523 1
-3 -1 7 66.185 17.975 1
-3 -1 7 59.0105 6.79373 3
3 -1 -7 45.1822 7.98813 2
3 1 -7 55.3056 14.8153 2
3 1 -7 51.0241 16.8863 1
-3 1 7 42.7203 15.3907 1
-2 -1 7 664.413 40.2302 1
-2 -1 7 639.165 20.1325 3
2 -1 -7 582.106 25.8774 2
2 1 -7 604.103 34.499 2
1 -1 -7 738.487 29.237 2
-1 -1 7 745.784 39.9941 1
-1 -1 7 703.796 35.6253 2
-1 1 7 726.592 27.8078 2
1 1 -7 689.04 37.1865 2
0 -1 -7 3286.83 91.8716 2
0 -1 7 3283 100.683 2
0 -1 7 3244.19 102.867 1
0 1 -7 3295.56 103.291 2
0 1 7 3159.18 90.8946 2
1 -1 7 1105.81 49.5872 2
-1 -1 -7 1134.76 43.1924 2
-1 1 -7 1120.74 51.1958 2
1 1 7 1161.15 43.7723 2
2 -1 7 995.651 47.7443 2
-2 -1 -7 986.746 41.6991 2
2 1 7 915.816 41.9615 2
-2 1 -7 1006.2 48.1775 2
3 -1 7 2.24975 12.2958 2
-3 1 -7 6.02614 13.944 2
3 1 7 -8.5986 10.1305 2
4 -1 7 852.294 48.9061 2
4 1 7 903.515 47.0713 2
-4 1 -7 871.729 48.8628 2
5 -1 7 667.964 46.9015 2
5 1 7 696.749 44.7375 2
-5 1 -7 740.744 46.2386 2
6 -1 7 1897.46 85.8763 2
-6 1 -7 1898.64 81.6565 2
6 1 7 1995.67 82.4335 2
7 -1 7 659.28 52.473 2
7 1 7 580.696 47.7845 2
-7 1 -7 585.061 47.5634 2
8 -1 7 458.371 35.0893 1
8 -1 7 532.644 53.7265 2
8 1 7 401.593 38.6199 1
8 1 7 407.948 48.2418 2
9 -1 7 -20.305 25.7692 2
9 -1 7 46.2115 19.6435 1
9 1 7 52.5797 22.3618 1
9 1 7 47.5821 28.1178 2
10 -1 7 561.231 45.0875 1
10 -1 7 441.12 56.3262 2
10 1 7 470.533 63.4512 2
10 1 7 555.272 80.4427 1
11 -1 7 247.499 47.9323 2
11 -1 7 225.924 34.6826 1
11 1 7 244.761 37.2405 1
11 1 7 330.625 56.5874 2
12 -1 7 1269.64 80.7746 1
12 -1 7 1353.8 105.468 2
12 1 7 1297.53 83.9264 1
12 1 7 1388.22 102.173 2
13 -1 7 197.517 62.6248 2
13 -1 7 228.305 57.5823 1
13 1 7 146.382 55.8379 2
13 1 7 191.651 48.4709 1
14 -1 7 318.591 58.4196 1
14 -1 7 214.768 76.4389 2
14 1 7 197.37 66.2522 1
14 1 7 330.679 78.4159 2
15 -1 7 176.691 63.7225 1
15 1 7 -107.63 65.6652 1
15 1 7 80.2858 89.365 2
16 -1 7 268.274 84.2615 1
16 1 7 -45.202 90.3522 1
18 -2 -7 297.028 101.356 2
18 -2 -7 -0.521 127.041 1
-18 2 7 64.169 79.9137 1
17 -2 -7 -49.464 72.4811 2
17 -2 -7 67.2596 100.295 1
-17 2 7 18.8703 65.77 1
16 -2 -7 398.899 87.6496 1
-16 -2 7 548.258 77.1586 1
16 -2 -7 422.589 75.1246 2
16 2 -7 315.497 102.866 1
-16 2 7 474.375 68.4437 1
-15 -2 7 389.853 64.1265 1
15 -2 -7 386.859 66.631 2
15 -2 -7 339.687 72.8798 1
-15 2 7 277.143 58.7553 1
15 2 -7 296.904 88.723 1
-14 -2 7 361.018 59.6217 1
14 -2 -7 230.422 47.4462 2
14 -2 -7 408.429 62.8381 1
14 2 -7 212.81 66.8953 1
-14 2 7 347.313 54.3298 1
13 -2 -7 34.1492 31.4775 2
13 -2 -7 42.76 55.9837 1
-13 -2 7 72.477 36.4864 1
13 2 -7 35.4102 50.3902 1
12 -2 -7 112.34 39.0166 1
12 -2 -7 101.965 30.9669 2
-12 -2 7 122.659 40.1068 1
12 2 -7 119.918 47.7484 1
-12 2 7 136.603 35.2669 1
11 -2 -7 577.205 46.4597 2
-11 -2 7 584.992 60.5464 1
-11 2 7 452.909 58.1525 1
11 2 -7 574.557 70.7221 1
-10 -2 7 1564.06 120.234 1
10 -2 -7 1744.7 70.7537 2
10 2 -7 1617.09 111.987 1
-10 2 7 1710.08 85.2052 1
-9 -2 7 474.154 48.0094 1
9 -2 -7 516.223 35.811 2
-9 2 7 464.047 52.9071 1
9 2 -7 499.445 57.1054 1
-8 -2 7 965.817 60.6536 1
8 2 -7 909.827 69.8258 1
-8 2 7 999.77 60.9544 1
-7 -2 7 114.993 27.467 1
-7 2 7 163.647 28.8693 1
7 2 -7 115.996 26.5229 1
-6 -2 7 324.648 36.4806 1
-6 2 7 312.388 38.1502 1
6 2 -7 326.485 42.1692 1
-5 -2 7 556.298 42.8771 1
-5 -2 7 552.176 23.3225 3
-5 2 7 522.565 42.5303 1
5 2 -7 527.092 46.0745 1
5 2 -7 541.383 36.1219 2
-4 -2 7 2416.81 67.0078 3
-4 -2 7 2480.69 92.2482 1
4 2 -7 2361.01 93.2006 1
-4 2 7 2338.63 89.1255 1
4 2 -7 2447.36 86.6906 2
-3 -2 7 1044.12 33.7001 3
-3 -2 7 936.551 52.2276 1
3 2 -7 1050.52 55.5835 1
-3 2 7 1089.93 36.8681 3
3 2 -7 1030.92 50.0469 2
-2 -2 7 2224.9 60.6521 3
-2 -2 7 2167.39 80.8573 1
-2 2 7 2246.03 60.5471 3
2 2 -7 2175.92 81.3554 1
2 2 -7 2091.71 80.0654 2
-1 -2 7 493.84 33.5607 2
-1 -2 7 562.369 22.3021 3
-1 -2 7 516.117 35.3331 1
-1 2 7 554.365 20.7083 3
1 2 -7 526.799 20.1503 3
1 2 -7 542.906 37.1624 2
0 -2 7 58.1533 13.985 1
0 -2 7 56.0038 9.51238 3
0 -2 7 46.7172 14.7253 2
0 -2 -7 63.6092 8.42936 3
0 2 -7 63.0254 15.6574 2
0 2 7 55.5453 6.9928 3
0 2 7 33.1386 7.88749 2
0 2 -7 60.9912 8.6636 3
-1 -2 -7 256.326 13.1354 3
1 -2 7 216.429 25.7305 2
1 -2 7 207.339 23.1708 1
-1 2 -7 253.262 15.821 3
-1 2 -7 250.874 27.9238 2
1 2 7 215.485 17.7903 2
-2 -2 -7 2721.38 71.66 3
2 -2 7 2620.23 95.4522 2
2 -2 7 2766.03 87.8823 1
-2 2 -7 2793.05 74.5693 3
2 2 7 2706.75 84.8173 2
-2 2 -7 2795.72 99.4563 2
3 -2 7 1652.2 70.8517 2
-3 -2 -7 1589.04 45.9903 3
-3 2 -7 1570.48 70.0461 2
-3 2 -7 1680.73 51.1837 3
3 2 7 1629.35 61.4833 2
4 -2 7 1349.58 68.2329 2
-4 -2 -7 1378.65 41.8275 3
-4 2 -7 1366.2 66.7669 2
4 2 7 1488.82 60.1675 2
-4 2 -7 1488.64 49.7296 3
5 -2 7 308.837 36.4959 2
-5 -2 -7 282.154 15.7551 3
5 2 7 323.313 31.7574 2
-5 2 -7 312.619 35.8191 2
6 -2 7 9.86467 19.9796 2
6 2 7 36.4529 16.9578 2
-6 2 -7 4.99916 19.5765 2
7 -2 7 45.5509 22.5404 2
-7 2 -7 31.9541 22.4709 2
7 2 7 55.7919 21.4511 2
8 -2 7 611.383 87.9084 2
8 -2 7 669.908 37.1376 1
8 2 7 651.374 53.2945 2
8 2 7 600.07 47.4071 1
9 -2 7 495.115 63.4134 2
9 -2 7 505.081 37.2772 1
-9 2 -7 514.608 56.3929 2
9 2 7 487.521 49.1168 1
9 2 7 531.385 64.5564 2
10 -2 7 1501.55 95.1202 2
10 -2 7 1420.32 64.2249 1
10 2 7 1522.86 80.7932 1
10 2 7 1558.27 88.1965 2
11 -2 7 169.037 31.9175 1
11 -2 7 167.318 47.0788 2
11 2 7 183.52 47.3898 2
11 2 7 187.391 41.3173 1
12 -2 7 -23.997 30.3834 1
12 -2 7 56.5127 46.4853 2
12 2 7 8.38529 42.6861 2
12 2 7 62.8991 41.5965 1
13 -2 7 -32.926 57.772 2
13 -2 7 -30.742 38.2218 1
13 2 7 35.9567 48.9687 1
13 2 7 93.5983 53.7293 2
14 -2 7 797.078 87.0129 1
14 -2 7 620.448 100.713 2
14 2 7 724.689 94.9788 2
14 2 7 576.739 84.8557 1
15 -2 7 47.7382 91.7401 1
15 2 7 316.019 85.2584 1
17 -3 -7 339.413 89.6094 2
-17 3 7 455.006 81.3974 1
16 -3 -7 79.3668 63.9204 2
-16 3 7 0.91435 55.256 1
15 -3 -7 23.6858 55.55 2
-15 -3 7 123.423 55.9091 1
15 3 -7 30.0562 84.1329 1
-15 3 7 53.8143 51.8037 1
14 -3 -7 77.3854 45.0052 2
-14 -3 7 44.2875 47.3232 1
14 3 -7 117.694 69.4373 1
-13 -3 7 1225.02 88.394 1
13 -3 -7 1041.51 75.8334 2
-13 3 7 1155.47 87.2428 1
13 3 -7 1119.49 115.575 1
-12 -3 7 46.2548 38.0383 1
12 -3 -7 33.7307 27.5633 2
12 3 -7 136.922 51.1361 1
-12 3 7 66.7325 38.5153 1
-11 -3 7 1015.14 73.9171 1
11 -3 -7 953.771 58.0182 2
11 3 -7 1064.71 91.614 1
-11 3 7 951.134 73.4231 1
10 -3 -7 3.90103 17.4865 2
-10 -3 7 23.0193 27.2356 1
-10 3 7 23.0737 29.2252 1
10 3 -7 41.6167 35.942 1
-9 -3 7 9.84564 11.2973 3
9 -3 -7 0.87531 15.8318 2
-9 -3 7 33.1236 25.8897 1
9 3 -7 53.3908 30.3552 1
-9 3 7 -4.4211 25.6116 1
-8 -3 7 -1.7814 10.8964 3
-8 -3 7 -39.149 18.1711 1
8 -3 -7 -0.33 13.6773 2
8 3 -7 19.4763 29.5377 1
-8 3 7 22.6783 23.575 1
-7 -3 7 1946.84 62.1021 3
7 -3 -7 1919.73 61.3745 2
-7 -3 7 1954.03 85.1883 1
7 3 -7 1950.69 95.6844 1
-7 3 7 1892.94 85.0973 1
-6 -3 7 -16.087 7.09464 3
-6 -3 7 -6.0189 19.3305 1
-6 3 7 -39.294 19.5363 1
6 3 -7 -14.342 21.9575 1
-5 -3 7 1440.41 68.3655 1
-5 -3 7 1381.38 47.7565 3
5 3 -7 1426.01 75.3533 1
-5 3 7 1454.89 68.2217 1
5 3 -7 1517.17 68.9448 2
-4 -3 7 40.3299 19.1077 1
-4 -3 7 17.6378 9.16388 3
-4 3 7 39.142 17.4126 3
4 3 -7 17.9041 14.4567 2
4 3 -7 38.9468 22.2372 1
-3 -3 7 135.008 21.6753 1
-3 -3 7 115.666 14.3906 3
3 3 -7 157.337 23.7635 2
-3 3 7 125.916 17.5627 3
3 3 -7 159.283 28.362 1
-2 -3 7 75.0981 11.73 3
-2 -3 7 90.0464 19.6386 1
2 3 -7 76.5777 21.0015 1
2 3 -7 88.5817 12.2648 3
-2 3 7 81.9395 14.1667 3
2 3 -7 103.285 23.3092 2
-1 -3 7 3151.24 101.992 1
-1 -3 7 3138.2 87.2063 3
-1 -3 7 3066.97 104.559 2
-1 3 7 3056.91 83.6836 3
1 3 -7 3150.56 103.533 1
1 3 -7 3029.16 83.6244 3
1 3 -7 3130.46 110.141 2
0 -3 7 5.38129 9.8736 3
0 -3 7 -2.4503 11.208 2
0 -3 -7 5.21563 8.24389 3
0 -3 7 3.51064 11.6662 1
0 3 -7 -12.887 13.891 2
0 3 -7 -1.4645 9.99846 3
0 3 7 5.78905 10.0044 3
1 -3 7 1834.99 59.1977 3
1 -3 7 1854.13 75.4619 2
-1 -3 -7 1884.34 56.4695 3
1 -3 7 1916.97 68.2778 1
1 3 7 1919.01 58.7182 2
-1 3 -7 1864.21 80.8209 2
-1 3 -7 1860.23 56.9068 3
1 3 7 1868.29 53.5819 3
2 -3 7 38.982 13.2218 1
-2 -3 -7 35.5781 8.08625 3
2 -3 7 27.78 16.8522 2
-2 3 -7 24.8012 20.8216 2
2 3 7 57.6327 12.7648 2
-2 3 -7 50.3027 14.5262 3
3 -3 7 41.6727 13.1871 1
3 -3 7 43.715 19.7436 2
-3 -3 -7 27.9759 8.03287 3
-3 3 -7 18.9249 18.8205 2
3 3 7 42.0532 13.2398 2
-3 3 -7 66.8027 18.2182 3
-4 -3 -7 -7.3639 7.11212 3
4 -3 7 10.9744 17.5075 2
4 -3 7 -2.0678 11.4932 1
-4 3 -7 -15.183 17.9184 2
4 3 7 6.40529 13.8611 2
5 -3 7 3616.92 105.041 1
5 -3 7 3712.42 133.119 2
-5 -3 -7 3719.42 101.008 3
5 3 7 3589.77 119.572 2
-5 3 -7 4071.95 138.643 2
-6 -3 -7 115.426 13.8628 3
6 -3 7 163.601 33.3331 2
6 -3 7 118.812 15.5131 1
-6 3 -7 136.673 32.5786 2
6 3 7 99.5833 25.0354 2
-7 -3 -7 1602.58 52.8553 3
7 -3 7 1540.68 51.7557 1
7 3 7 1658.07 78.2814 2
8 -3 7 8.02426 13.1053 1
-8 -3 -7 17.1332 10.3567 3
8 -3 7 -31.272 27.256 2
8 3 7 -31.086 20.8686 1
-8 3 -7 -61.789 26.2206 2
8 3 7 1.69264 26.2655 2
9 -3 7 -29.336 16.3736 1
9 -3 7 -1.7753 32.0649 2
-9 -3 -7 34.5597 13.6361 3
9 3 7 14.9449 26.3603 1
9 3 7 9.19926 27.834 2
-9 3 -7 55.1961 29.4893 2
10 -3 7 29.0065 21.6157 1
10 -3 7 63.8872 35.2189 2
-10 -3 -7 40.1628 14.9085 3
-10 3 -7 58.9392 33.9738 2
10 3 7 40.3188 37.7075 2
10 3 7 52.8182 32.1805 1
-11 -3 -7 1016.44 47.4678 3
11 -3 7 1165.78 101.883 2
11 -3 7 1206.4 59.5054 1
11 3 7 1173 84.3764 1
11 3 7 1089.35 92.3503 2
12 -3 7 10.5364 30.3501 1
12 -3 7 30.9626 55.0764 2
12 3 7 -18.677 48.6024 2
12 3 7 -49.648 45.0376 1
13 -3 7 1037.8 76.9452 1
13 -3 7 982.861 109.541 2
13 3 7 1079.28 116.284 1
13 3 7 1112.83 117.161 2
14 -3 7 98.1274 81.6582 2
14 -3 7 9.60907 49.2411 1
14 3 7 -38.697 74.9648 1
14 3 7 128.426 76.1103 2
-16 -4 7 412.048 46.4511 3
16 -4 -7 615.08 88.7481 2
-16 4 7 481.372 70.3957 1
15 -4 -7 231.007 60.9424 2
-15 -4 7 117.18 28.9576 3
-15 4 7 232.062 58.5729 1
-14 -4 7 427.824 70.5038 1
-14 -4 7 357.214 40.7487 3
14 4 -7 524.344 104.265 1
-14 4 7 637.09 84.4878 1
-13 -4 7 102.738 45.9433 1
-13 -4 7 15.6992 18.2591 3
13 -4 -7 -10.398 38.4782 2
-13 4 7 44.9819 44.1851 1
13 4 -7 15.21 60.4652 1
-12 -4 7 92.7109 44.3934 1
-12 -4 7 106.773 22.5093 3
12 -4 -7 102.97 34.3462 2
-12 4 7 157.561 43.5447 1
12 4 -7 95.9768 59 1
11 -4 -7 145.466 31.1113 2
-11 -4 7 124.863 23.5541 3
-11 -4 7 162.211 38.5209 1
11 4 -7 177.623 56.759 1
-11 4 7 76.5306 37.956 1
-10 -4 7 1276.2 78.8135 1
-10 -4 7 1280.75 56.5278 3
10 -4 -7 1312.03 61.3024 2
10 4 -7 1315.26 98.7071 1
-10 4 7 1517.24 84.762 1
-9 -4 7 320.293 29.6524 3
-9 -4 7 401.081 50.718 1
9 -4 -7 369.262 30.8546 2
9 4 -7 420.472 60.4342 1
-9 4 7 417.795 47.965 1
-8 -4 7 1226.36 49.8624 3
-8 -4 7 1158.3 70.4682 1
8 -4 -7 1206.97 46.4421 2
-8 4 7 1161.2 73.2969 1
8 4 -7 1150.81 83.204 1
-7 -4 7 31.6283 13.7689 3
-7 -4 7 39.0507 22.2463 1
7 4 -7 83.0955 30.1456 1
-7 4 7 44.7097 26.1893 1
7 4 -7 37.0355 22.3216 2
-6 -4 7 272.001 38.5444 1
-6 -4 7 220.8 24.4761 3
6 4 -7 216.146 35.0812 2
-6 4 7 233.584 35.144 1
6 4 -7 265.651 41.7313 1
-5 -4 7 86.1884 20.8305 1
-5 -4 7 59.2819 14.1591 3
5 4 -7 93.6538 30.5356 1
5 4 -7 82.5256 24.0077 2
-5 4 7 133.565 27.8666 1
-4 -4 7 1712.76 75.1318 1
-4 -4 7 1731.8 59.0705 3
4 4 -7 1697.6 82.7204 1
4 4 -7 1739.06 80.4012 2
-3 -4 7 274.577 21.5509 3
-3 -4 7 302.728 31.9199 1
3 4 -7 258.012 36.2346 2
3 4 -7 286.19 37.5544 1
-2 -4 7 2498.31 90.4971 1
-2 -4 7 2565.22 79.5527 3
2 4 -7 2645.02 99.1834 1
2 4 -7 2638.22 104.15 2
-1 -4 7 108.732 14.237 3
-1 -4 7 107.421 20.5703 1
1 4 -7 128.216 29.856 2
1 4 -7 115.094 24.7918 1
0 -4 7 74.5791 16.2021 1
0 -4 7 94.8868 21.7643 2
0 -4 -7 105.163 15.4393 3
0 -4 7 86.0702 14.6915 3
0 4 -7 100.926 21.6609 1
0 4 -7 94.6616 24.5151 2
1 -4 7 113.983 21.4371 2
1 -4 7 94.7091 17.2192 1
1 -4 7 86.8512 15.5332 3
-1 -4 -7 86.0798 13.5807 3
1 4 7 106.325 13.3433 2
-1 4 -7 66.9334 21.5688 2
2 -4 7 1200.96 62.9119 2
-2 -4 -7 1105.41 43.0784 3
2 -4 7 1112.77 44.443 1
-2 4 -7 1183.5 67.4766 2
2 4 7 1126.96 45.7519 2
3 -4 7 524.521 26.61 1
-3 -4 -7 561.207 28.7475 3
3 -4 7 571.282 48.0528 2
3 4 7 568.601 35.817 2
-3 4 -7 571.167 52.6575 2
4 -4 7 1382.12 74.906 2
-4 -4 -7 1409.35 49.12 3
4 4 7 1405.09 60.9964 2
-4 4 -7 1349.44 76.0141 2
-5 -4 -7 107.308 15.7046 3
5 -4 7 119.775 31.1802 2
-5 4 -7 90.9937 35.185 2
5 4 7 110.879 24.5882 2
6 -4 7 45.7616 28.793 2
-6 -4 -7 58.0535 14.3356 3
6 4 7 83.5398 24.2241 1
-6 4 -7 76.5946 31.1186 2
6 4 7 62.9395 24.3965 2
7 -4 7 -3.0872 26.9103 2
-7 -4 -7 35.4395 15.0366 3
7 4 7 44.881 24.9779 1
-7 4 -7 26.5603 31.1064 2
7 4 7 32.2584 28.2082 2
-8 -4 -7 965.748 44.1642 3
8 -4 7 1003.34 82.8848 2
-8 4 -7 968.2 75.3916 2
8 4 7 986.093 68.4336 2
8 4 7 995.448 71.2407 1
9 -4 7 286.864 55.082 2
-9 -4 -7 327.349 30.2641 3
-9 4 -7 285.739 51.2669 2
9 4 7 259.126 44.6361 1
9 4 7 301.794 50.9394 2
-10 -4 -7 969.125 47.3327 3
10 -4 7 858.944 101.243 2
10 4 7 953.778 85.6368 2
-10 4 -7 940.173 90.9908 2
10 4 7 1034.99 82.1066 1
11 -4 7 9.87137 55.8108 2
-11 -4 -7 45.7327 18.9294 3
11 4 7 179.691 53.2407 2
-11 4 -7 23.4917 56.2391 2
11 4 7 112.188 47.9187 1
-12 -4 -7 42.0041 19.23 3
12 -4 7 22.0558 63.8372 2
12 4 7 -70.05 54.1709 2
12 4 7 59.0734 58.2395 1
-13 -4 -7 -6.8169 24.0514 3
13 -4 7 -17.411 74.3194 2
13 4 7 -209.55 85.6569 1
13 4 7 34.7679 72.3884 2
-14 -4 -7 508.7 48.5415 3
-15 -4 -7 67.7322 34.4714 3
-15 -5 7 -27.417 24.3597 3
-14 -5 7 222.414 39.556 3
14 -5 -7 244.45 68.5232 2
-14 5 7 158.862 55.6652 1
-13 -5 7 328.86 37.2791 3
13 -5 -7 557.583 75.8664 2
-13 -5 7 235.605 66.0458 1
13 5 -7 250.77 91.6823 1
-13 5 7 356.015 53.8228 1
-12 -5 7 504.309 70.2902 1
12 -5 -7 627.063 66.5144 2
-12 -5 7 611.044 46.9688 3
-12 5 7 656.449 78.1012 1
12 5 -7 496.311 88.5747 1
11 -5 -7 427.395 51.6175 2
-11 -5 7 340.691 37.8833 3
-11 -5 7 264.822 55.3717 1
11 5 -7 445.838 87.075 1
-11 5 7 283.669 47.0969 1
-10 -5 7 11.0073 38.5861 1
10 -5 -7 30.5363 21.8846 2
-10 -5 7 26.0784 18.7841 3
-10 5 7 1.67087 37.3208 1
10 5 -7 16.4464 51.4357 1
-9 -5 7 -3.5325 16.8057 3
9 -5 -7 -13.57 17.2477 2
-9 -5 7 -11.723 31.3883 1
9 5 -7 17.2488 34.687 2
9 5 -7 113.547 47.8813 1
-9 5 7 16.7449 37.9276 1
-8 -5 7 576.85 40.0069 3
-8 -5 7 723.248 64.5624 1
8 5 -7 586.686 75.6668 1
-8 5 7 570.604 67.4742 1
8 5 -7 576.743 65.6995 2
-7 -5 7 203.675 24.1985 3
-7 -5 7 253.949 37.3286 1
7 5 -7 227.88 46.6049 1
-7 5 7 182.46 39.8188 1
7 5 -7 226.967 35.6819 2
-6 -5 7 1418.58 58.8317 3
-6 -5 7 1324.82 72.9409 1
6 5 -7 1445.16 80.4528 2
6 5 -7 1355.78 90.8842 1
-6 5 7 1416.6 77.4634 1
-5 -5 7 1189.25 63.4454 1
-5 -5 7 1134.19 51.261 3
5 5 -7 1181.88 79.4848 1
5 5 -7 1089.14 71.1547 2
-4 -5 7 209.479 29.4387 1
-4 -5 7 188.826 24.6256 3
4 5 -7 239.859 41.052 2
4 5 -7 176.72 36.4426 1
-3 -5 7 -3.0216 19.053 1
-3 -5 7 -14.415 15.5109 3
3 5 -7 14.8652 25.4688 2
3 5 -7 -18.518 25.032 1
-2 -5 7 734.181 42.8517 1
-2 -5 7 683.453 40.9256 3
2 5 -7 739.868 55.6124 1
-1 -5 7 1063.52 50.5021 3
-1 -5 7 1006.73 48.8432 1
1 5 -7 951.028 84.5024 2
1 5 -7 1053.24 62.8438 1
0 -5 -7 1271.09 54.2446 3
0 -5 7 1272.7 51.7531 1
0 -5 7 1283.66 56.4848 3
0 5 -7 1253 61.2963 1
0 5 -7 1254.12 95.3133 2
1 -5 7 347.523 25.1932 1
-1 -5 -7 367.984 30.3806 3
1 -5 7 369.016 35.5776 3
1 -5 7 243.844 45.8497 2
1 5 7 307.011 26.3991 2
2 -5 7 310.874 51.5373 2
2 -5 7 302.074 21.2782 1
-2 5 -7 344.765 47.6521 2
3 -5 7 -10.43 23.9441 2
-3 -5 -7 29.3946 18.6216 3
-3 5 -7 92.7214 29.4623 2
4 -5 7 426.328 52.6767 2
-4 -5 -7 295.739 31.3962 3
-4 5 -7 316.072 47.0372 2
-5 -5 -7 873.331 45.6099 3
5 -5 7 964.514 74.198 2
-5 5 -7 879.626 71.1012 2
5 5 7 849.534 61.443 1
-6 -5 -7 1107.62 50.6035 3
6 -5 7 1070.93 83.1035 2
6 5 7 1074.76 71.3745 1
-6 5 -7 1078.06 81.6658 2
-7 -5 -7 593.806 39.8795 3
7 -5 7 592.739 79.3956 2
7 5 7 498.46 65.1918 1
-7 5 -7 467.251 62.7345 2
-8 -5 -7 257.684 31.8893 3
8 -5 7 284.93 55.4152 2
8 5 7 201.005 42.4282 1
-8 5 -7 228.475 51.0197 2
8 5 7 276.455 47.2296 2
-9 -5 -7 33.6926 20.1098 3
9 -5 7 -17.817 49.1493 2
9 5 7 33.002 44.8933 1
9 5 7 27.9239 41.1444 2
-9 5 -7 6.99814 46.9397 2
10 -5 7 216.528 66.1248 2
-10 -5 -7 193.152 28.6601 3
-10 5 -7 204.546 58.1016 2
10 5 7 145.918 52.547 2
10 5 7 337.161 61.3794 1
11 -5 7 301.926 79.4152 2
-11 -5 -7 287.148 36.0208 3
11 5 7 303.623 67.7818 2
-11 5 -7 380.814 76.2723 2
11 5 7 217.469 63.6235 1
12 -5 7 638.022 98.8593 2
-12 -5 -7 965.81 58.9997 3
12 5 7 661.27 96.4028 2
13 5 7 -109.54 84.0948 2
-14 -5 -7 199.644 40.2907 3
-14 -6 7 -83.771 31.3089 3
-13 -6 7 19.638 32.4926 3
-12 -6 7 33.0227 26.4133 3
-12 6 7 -83.894 45.4781 1
-11 -6 7 260.393 37.5161 3
-11 -6 7 315.644 64.2207 1
11 -6 -7 416.816 39.4434 2
11 6 -7 383.569 74.5606 2
11 6 -7 365.225 91.2678 1
-11 6 7 401.092 55.7404 1
-10 -6 7 25.7006 46.24 1
-10 -6 7 106.479 29.9626 3
-10 6 7 36.9829 45.5168 1
10 6 -7 15.3081 53.3246 2
10 6 -7 28.4929 72.1519 1
-9 -6 7 625.204 72.0826 1
-9 -6 7 706.435 50.6406 3
-9 6 7 758.288 81.3818 1
9 6 -7 823.486 95.8273 1
9 6 -7 663.833 78.8382 2
-8 -6 7 -4.1838 21.4088 3
-8 -6 7 -26.001 35.4067 1
8 6 -7 19.7484 51.241 1
-8 6 7 11.3233 42.3746 1
8 6 -7 -49.171 40.8689 2
-7 -6 7 292.261 48.6087 1
-7 -6 7 321.161 35.5428 3
7 6 -7 311.946 50.1448 2
-7 6 7 355.643 50.7568 1
7 6 -7 295.9 59.576 1
-6 -6 7 72.6292 29.9919 1
-6 -6 7 36.1368 20.4156 3
6 6 -7 -42.231 33.6744 2
6 6 -7 13.7295 44.4917 1
-6 6 7 -6.5616 35.3639 1
-5 -6 7 620.486 44.2953 3
-5 -6 7 544.252 63.2326 1
5 6 -7 615.582 70.6418 2
5 6 -7 556.762 72.985 1
-4 -6 7 -17.459 19.6874 3
-4 -6 7 23.1868 25.5037 1
4 6 -7 15.9946 37.037 1
4 6 -7 31.3873 34.9788 2
-3 -6 7 1478.1 69.3926 1
-3 -6 7 1539.74 66.6822 3
3 6 -7 1439.22 85.4942 1
3 6 -7 1306.76 87.6203 2
-2 -6 7 12.1953 20.421 3
-2 -6 7 34.1741 18.41 1
2 6 -7 -19.12 29.4332 2
2 6 -7 22.435 32.7692 1
-1 -6 7 191.854 24.1053 1
-1 -6 7 171.92 32.1761 3
1 6 -7 173.514 38.7121 2
1 6 -7 151.208 36.1149 1
0 -6 -7 29.9207 22.3161 3
0 -6 7 1.97999 21.4449 3
0 6 -7 13.4471 28.239 1
0 6 -7 -44.808 31.3682 2
-1 -6 -7 705.295 47.1054 3
-1 6 -7 712.146 70.9776 2
1 6 7 683.818 42.9919 2
-2 -6 -7 60.971 24.5439 3
2 -6 7 34.8169 29.2105 2
2 6 7 55.4822 22.5044 2
-2 6 -7 39.2007 35.9218 2
-3 -6 -7 1936.64 75.9228 3
3 -6 7 2064.22 102.7 2
-3 6 -7 1937.53 108.374 2
3 6 7 1969.48 76.3812 2
3 6 7 1811.05 91.4809 1
-4 -6 -7 46.1923 19.9669 3
4 -6 7 85.6486 38.5079 2
-4 6 -7 68.0715 39.9746 2
4 6 7 19.5979 29.3093 1
5 -6 7 311.142 55.9557 2
-5 -6 -7 305.657 35.9765 3
5 6 7 320.119 45.1766 1
-5 6 -7 392.501 54.5298 2
-6 -6 -7 -6.1816 19.8552 3
6 -6 7 -7.1365 42.6899 2
6 6 7 20.1386 36.3116 1
-6 6 -7 36.1065 50.1431 2
7 -6 7 342.301 64.7905 2
-7 -6 -7 384.186 40.2341 3
7 6 7 421.724 62.511 1
-7 6 -7 427.096 67.0636 2
8 -6 7 37.754 56.4928 2
-8 -6 -7 43.5107 25.148 3
8 6 7 -69.081 49.1804 1
-8 6 -7 40.7613 61.9224 2
-9 -6 -7 1386.81 69.0328 3
9 -6 7 1113.95 127.811 2
9 6 7 1149.36 110.481 2
9 6 7 1401.88 117.614 1
-9 6 -7 1194.62 126.435 2
10 -6 7 44.8883 72.6307 2
-10 -6 -7 36.7551 30.5124 3
-10 6 -7 -4.3093 74.5318 2
10 6 7 8.36172 67.6057 2
-11 -6 -7 309.521 48.0187 3
11 6 7 166.225 79.0011 2
-12 -6 -7 -64.028 34.4967 3
12 6 7 -81.398 91.3065 2
-12 -7 7 843.839 69.1964 3
-11 -7 7 143.075 36.2447 3
-10 -7 7 127.281 33.8949 3
10 7 -7 60.2713 105.274 1
-9 -7 7 50.4701 29.7578 3
9 7 -7 140.601 75.718 2
-9 7 7 79.5426 53.3024 1
9 7 -7 -55.756 88.8266 1
-8 -7 7 452.018 50.3167 3
8 7 -7 375.413 72.8469 2
8 7 -7 334.014 85.8264 1
-8 7 7 436.941 61.5743 1
-7 -7 7 35.2984 27.7262 3
-7 7 7 60.3968 52.0917 1
7 7 -7 -65.374 66.2582 1
7 7 -7 60.0683 53.3803 2
-6 -7 7 1196.49 67.4681 3
6 7 -7 1124.22 112.561 2
6 7 -7 1270.21 121.375 1
-6 7 7 1209.96 99.5473 1
-5 -7 7 111.62 30.2813 3
5 7 -7 61.0715 54.0472 2
5 7 -7 123.294 61.219 1
-4 -7 7 198.226 34.8288 3
4 7 -7 240.629 59.4635 1
4 7 -7 270.207 56.9094 2
-3 -7 7 -15.367 24.3993 3
3 7 -7 28.7803 45.3348 1
3 7 -7 -39.345 44.916 2
-2 -7 7 269.372 39.5812 3
2 7 -7 371.283 63.47 2
2 7 -7 477.849 60.8238 1
-1 -7 7 154.996 35.1956 3
1 7 -7 159.276 53.5514 2
1 7 -7 235.93 48.8327 1
0 -7 7 1558.19 78.4347 3
0 7 7 1517.83 87.2502 1
0 7 -7 1622.92 86.8488 1
0 7 -7 1595.09 110.323 2
-1 -7 -7 141.356 31.899 3
1 7 7 95.2663 28.9843 2
-1 7 -7 120.534 53.8801 2
1 7 7 78.1079 35.4175 1
-2 -7 -7 244.845 36.7554 3
-2 7 -7 261.49 61.6408 2
2 7 7 306.097 46.8211 1
2 7 7 259.76 37.487 2
-3 -7 -7 25.1048 27.5815 3
3 7 7 46.1955 31.6555 2
3 7 7 93.2088 42.0567 1
-3 7 -7 -47.45 51.7371 2
-4 -7 -7 219.867 36.6212 3
4 -7 7 274.163 57.6561 2
4 7 7 281.234 43.8105 2
-4 7 -7 136.389 59.9085 2
4 7 7 148.154 48.4572 1
5 -7 7 169.311 52.5401 2
-5 -7 -7 34.9175 28.9978 3
5 7 7 80.7001 52.0802 1
5 7 7 5.79767 39.0875 2
-5 7 -7 110.413 62.0118 2
6 -7 7 701.57 79.3719 2
-6 -7 -7 974.283 63.3036 3
6 7 7 972.952 111.405 1
-6 7 -7 757.361 96.0389 2
7 -7 7 219.941 68.3021 2
-7 -7 -7 91.7517 32.9325 3
-7 7 -7 57.2312 72.203 2
7 7 7 128.664 67.0793 1
-8 -7 -7 326.006 45.4948 3
8 -7 7 338.638 84.4281 2
-8 7 -7 201.414 84.0559 2
-9 -7 -7 -20.453 33.1886 3
9 7 7 72.8538 75.4803 2
-10 -7 -7 278.829 46.9245 3
10 7 7 311.583 92.3286 2
-9 -8 7 232.937 44.7404 3
-8 -8 7 204.47 40.3821 3
8 8 -7 246.243 121.467 1
-7 -8 7 25.1197 35.5079 3
7 8 -7 287.847 103.133 1
-6 -8 7 14.9502 30.9496 3
6 8 -7 113.965 98.1817 1
-6 8 7 108.284 86.7711 1
-6 8 7 62.4964 58.5831 1
-5 -8 7 110.261 37.9678 3
5 8 -7 -58.018 82.7857 2
-5 8 7 77.4432 69.4948 1
-5 8 7 149.542 53.2622 1
5 8 -7 -53.327 82.84 1
-4 -8 7 420.071 51.4658 3
-4 8 7 442.233 60.5355 1
4 8 -7 441.915 85.1529 2
4 8 -7 599.73 88.9284 1
-3 -8 7 556.587 63.4195 3
-3 8 7 502.033 64.5564 1
3 8 -7 622.097 92.8317 2
3 8 -7 515.359 82.035 1
-2 -8 7 444.244 49.9141 3
-2 8 7 332.83 58.6131 1
2 8 -7 502.008 76.3239 1
2 8 -7 298.866 82.2005 2
-1 -8 7 -5.3847 34.3392 3
1 8 -7 38.3463 69.5071 2
1 8 -7 108.674 60.3197 1
-1 8 7 95.9697 52.7238 1
0 8 -7 78.0552 72.976 2
0 8 7 34.6065 52.61 1
1 8 7 184.946 60.1425 1
-1 8 -7 43.4173 73.4016 2
-2 -8 -7 246.555 46.5216 3
-2 8 -7 138.025 78.578 2
2 8 7 221.248 69.7771 1
2 8 7 290.306 49.7574 2
-3 -8 -7 574.869 65.7689 3
3 8 7 539.843 80.8044 1
3 8 7 545.2 61.5472 2
-3 8 -7 451.345 99.406 2
-4 -8 -7 477.42 58.8525 3
-4 8 -7 371.348 96.6725 2
4 8 7 612.563 72.6737 2
4 8 7 459.447 87.2082 1
-5 -8 -7 199.153 45.1385 3
5 8 7 77.2963 85.9229 1
-5 8 -7 266.181 102.441 2
-6 -8 -7 -50.624 39.6847 3
-7 -8 -7 85.4816 45.4018 3
17 0 -8 -200.09 90.8321 1
-17 0 8 -63.811 64.3546 1
16 0 -8 924.794 116.78 1
-16 0 8 746.628 102.998 1
15 0 -8 -54.344 68.0602 1
-15 0 8 18.5467 50.8665 1
-14 0 8 266.389 57.7118 1
14 0 -8 213.281 60.3889 1
13 0 -8 -63.228 41.1274 1
-13 0 8 -75.126 37.7953 1
-12 0 8 307.806 49.1961 1
12 0 -8 276.481 55.0609 1
11 0 -8 171.668 76.0482 1
-10 0 8 2246.86 103.834 1
10 0 -8 2370.75 111.192 1
9 0 -8 6.82884 27.2922 1
-9 0 8 25.9494 25.5172 1
8 0 -8 633.037 54.8462 1
-8 0 8 605.067 53.3853 1
-7 0 8 4.5036 20.2676 1
7 0 -8 -4.6797 17.4409 1
6 0 -8 143.534 26.2375 1
-6 0 8 151.474 26.8364 1
-5 0 8 33.5778 19.1447 1
4 0 -8 3110.05 93.0567 2
-4 0 8 2935.82 108.026 1
-3 0 8 -7.1764 15.0422 1
3 0 -8 -7.0155 8.3888 2
-2 0 8 2428.27 89.9038 1
2 0 -8 2522.06 79.5529 2
-1 0 8 -4.04 8.23328 2
1 0 -8 2.4831 8.60344 2
0 0 -8 851.356 41.2244 2
0 0 8 911.257 40.7886 2
1 0 8 -1.4184 9.83396 2
-1 0 -8 -5.8418 10.0041 2
2 0 8 4715.59 139.858 2
-2 0 -8 4711.34 139.346 2
-4 0 -8 996.633 52.4184 2
4 0 8 1014.08 54.4434 2
6 0 8 127.608 28.2116 2
-6 0 -8 99.3721 22.3344 2
7 0 8 6.76303 23.2974 2
8 0 8 2175.46 100.505 2
9 0 8 -21.501 29.543 2
9 0 8 -12.559 18.5534 1
10 0 8 1570.96 75.7623 1
10 0 8 1655.11 99.0398 2
11 0 8 79.2183 41.9729 2
12 0 8 46.6868 37.4476 1
12 0 8 95.0733 54.9069 2
13 0 8 -63.041 39.917 1
13 0 8 87.2038 61.8095 2
14 0 8 1128.07 135.592 2
14 0 8 890.382 103.929 1
15 0 8 34.6614 69.0018 1
16 0 8 419.394 114.62 1
18 -1 -8 185.204 137.372 1
18 -1 -8 221.016 94.4471 2
-18 1 8 67.1079 86.1858 1
17 -1 -8 149.524 75.2346 2
-17 -1 8 315.534 77.2505 1
17 -1 -8 133.445 101.118 1
-17 1 8 317.009 72.5376 1
17 1 -8 20.219 105.859 1
-16 -1 8 -36.448 55.6089 1
16 -1 -8 96.1523 80.9692 1
16 -1 -8 71.4565 60.0815 2
-16 1 8 -99.785 54.0891 1
16 1 -8 -98.61 77.0517 1
-15 -1 8 168.416 51.7446 1
15 -1 -8 103.396 49.6157 2
15 -1 -8 74.4762 69.3642 1
-15 1 8 259.88 62.2788 1
15 1 -8 154.069 74.8259 1
-14 -1 8 191.017 47.9098 1
14 -1 -8 229.033 60.7927 1
-14 1 8 249.27 52.721 1
14 1 -8 140.639 57.0123 1
-13 -1 8 984.531 86.2978 1
13 -1 -8 944.939 93.1806 1
-13 1 8 1026.66 84.3465 1
13 1 -8 1009 99.4724 1
-12 -1 8 411.44 52.1263 1
12 -1 -8 599.206 77.0455 1
12 1 -8 377.803 64.3802 1
-12 1 8 324.12 49.0002 1
-11 -1 8 354.232 47.8244 1
11 -1 -8 542.898 64.2215 1
11 1 -8 521.182 70.3778 1
-11 1 8 424.553 58.4836 1
-10 -1 8 9.51439 28.3581 1
10 -1 -8 85.8154 32.4674 1
10 1 -8 -4.9382 33.9948 1
-10 1 8 -33.727 24.2886 1
-9 -1 8 242.473 41.4106 1
9 -1 -8 194.077 37.8749 1
-9 1 8 174.864 38.106 1
9 1 -8 192.812 40.5833 1
8 -1 -8 303.167 41.5574 1
-8 -1 8 365.777 45.407 1
8 1 -8 360.004 47.7858 1
-8 1 8 285.706 40.0847 1
-7 -1 8 3253.61 121.817 1
7 1 -8 3280.24 124.544 1
-7 1 8 3243.68 120.563 1
-6 -1 8 643.134 49.2264 1
6 1 -8 654.388 52.5354 1
-6 1 8 687.763 51.7734 1
-5 -1 8 1017.64 59.1556 1
5 1 -8 1005.61 60.7413 1
5 1 -8 1060.52 49.6916 2
-5 1 8 1011 58.6226 1
-4 -1 8 327.304 36.3914 1
4 -1 -8 301.221 20.3437 2
4 1 -8 321.736 36.3026 1
-4 1 8 288.138 34.1804 1
4 1 -8 234.602 26.4041 2
3 -1 -8 747.062 31.6454 2
-3 -1 8 836.214 25.3422 3
-3 -1 8 762.061 47.8939 1
-3 1 8 789.374 46.8267 1
3 1 -8 792.541 41.9385 2
2 -1 -8 1074.04 38.8825 2
-2 -1 8 996.181 52.6978 1
-2 -1 8 1021.3 29.9624 3
2 1 -8 1021.8 48.4984 2
-1 -1 8 2477.9 90.6786 1
-1 -1 8 2525.19 84.1708 2
1 -1 -8 2544.09 75.4377 2
1 1 -8 2479.84 86.3838 2
-1 1 8 2585.08 73.6405 2
0 -1 8 1328.91 57.6423 1
0 -1 8 1232.19 53.4447 2
0 -1 -8 1288.24 47.0897 2
0 1 8 1281.24 46.9045 2
0 1 -8 1329.88 56.2921 2
-1 -1 -8 2256.26 72.8952 2
1 -1 8 2226.46 81.7688 2
-1 1 -8 2323.87 84.6901 2
1 1 8 2350.25 75.1444 2
2 -1 8 3.59726 12.7644 2
-2 -1 -8 11.6277 10.9044 2
2 1 8 -5.0435 11.0087 2
-2 1 -8 33.213 13.3399 2
-3 -1 -8 644.179 37.2451 2
3 -1 8 715.771 45.4523 2
-3 1 -8 703.941 26.7998 3
3 1 8 733.488 41.1029 2
-3 1 -8 692.695 44.6884 2
4 -1 8 241.712 32.1341 2
4 1 8 229.431 30.3062 2
-4 1 -8 199.576 28.4681 2
5 -1 8 1713.53 77.3974 2
5 1 8 1740.42 74.6579 2
-5 1 -8 1698.48 75.1928 2
6 -1 8 769.729 55.971 2
-6 1 -8 704.264 50.7721 2
6 1 8 753.673 52.2072 2
7 -1 8 1065.26 70.9537 2
7 1 8 1100.45 68.572 2
-7 1 -8 1167.47 66.1932 2
8 -1 8 166.227 46.5775 2
8 1 8 100.219 28.849 2
9 -1 8 157.267 27.8573 1
9 -1 8 134.345 38.2538 2
9 1 8 161.692 28.7519 1
9 1 8 198.351 40.4457 2
10 -1 8 93.2074 41.6611 2
10 -1 8 95.7867 28.4423 1
10 1 8 126.422 31.6979 1
10 1 8 78.2551 40.0642 2
11 -1 8 1346.42 98.9053 2
11 -1 8 1285.37 71.1605 1
11 1 8 1307.08 100.024 2
11 1 8 1225.2 78.1437 1
12 -1 8 364.706 66.6814 2
12 -1 8 399.697 51.4907 1
12 1 8 352.972 67.7464 2
12 1 8 409.334 53.7029 1
13 -1 8 593.991 83.0529 2
13 -1 8 655.608 82.5409 1
13 1 8 627.198 86.3367 1
13 1 8 680.778 89.0712 2
14 -1 8 171.713 55.7395 1
14 -1 8 97.3449 76.6787 2
14 1 8 55.7734 60.6814 1
14 1 8 157.334 74.0356 2
15 -1 8 -28.161 63.3812 1
15 1 8 64.7257 79.6334 1
16 -1 8 95.3391 86.7767 1
16 1 8 95.7466 102.632 1
18 -2 -8 62.8225 93.0422 2
-18 2 8 -17.71 84.0511 1
17 -2 -8 310.211 84.4739 2
-17 2 8 316.311 77.178 1
16 -2 -8 244.21 70.27 2
-16 -2 8 228.319 69.5687 1
16 2 -8 248.67 102.78 1
-16 2 8 216.933 65.7192 1
-15 -2 8 446.141 72.2953 1
15 -2 -8 329.981 60.5956 2
-15 2 8 478.505 67.8722 1
15 2 -8 164.363 82.4021 1
-14 -2 8 198.098 46.3814 1
14 -2 -8 127.338 46.2441 2
-14 2 8 240.079 51.9736 1
14 2 -8 221.417 75.6532 1
-13 -2 8 48.6311 43.3071 1
13 -2 -8 -3.4978 31.1974 2
-13 2 8 -24.15 39.1008 1
13 2 -8 -52.065 50.8038 1
-12 -2 8 139.71 39.9327 1
12 -2 -8 171.111 32.6488 2
-12 2 8 247.715 51.8587 1
12 2 -8 90.673 50.8217 1
11 -2 -8 774.421 51.8405 2
-11 -2 8 844.275 69.4406 1
-11 2 8 751.727 69.6968 1
11 2 -8 675.668 80.6769 1
10 -2 -8 992.822 51.4647 2
-10 -2 8 986.799 70.441 1
-10 2 8 918.885 69.5743 1
10 2 -8 946.374 80.8573 1
-9 -2 8 1743.54 88.7614 1
-9 2 8 1771.25 88.7772 1
9 2 -8 1648.96 97.3297 1
-8 -2 8 167.577 34.0941 1
-8 2 8 176.094 34.0208 1
8 2 -8 208.854 41.0031 1
-7 -2 8 6.28733 20.1615 1
7 2 -8 31.7678 25.1432 1
-7 2 8 -7.4299 22.6488 1
-6 -2 8 60.3177 9.81408 3
-6 -2 8 44.3152 18.1539 1
-6 2 8 75.6063 24.6748 1
6 2 -8 42.0943 21.3846 1
-5 -2 8 1573.16 73.9939 1
-5 -2 8 1505.47 46.7997 3
5 -2 -8 1539.58 46.5987 2
5 2 -8 1532.57 75.7964 1
5 2 -8 1487.12 66.2683 2
-5 2 8 1456.17 71.7612 1
-4 -2 8 850.386 29.837 3
-4 -2 8 770.948 52.4515 1
4 2 -8 800.167 52.9056 1
4 2 -8 799.923 46.9746 2
-4 2 8 884.95 53.0362 1
-3 -2 8 2757.86 101.134 1
-3 -2 8 2777.53 74.8676 3
3 2 -8 2633.95 95.7536 2
-3 2 8 2807.89 76.3792 3
3 2 -8 2832.68 102.102 1
-2 -2 8 780.65 27.8244 3
-2 -2 8 778.615 46.5712 1
-2 2 8 787.426 28.2669 3
2 2 -8 750.119 45.5733 2
2 2 -8 807.104 47.5095 1
-1 -2 8 215.304 28.5837 1
-1 -2 8 223.452 14.9783 3
-1 -2 8 269.773 26.3449 2
-1 2 8 225.236 12.9146 2
1 2 -8 251.037 29.2965 2
0 -2 8 -0.7104 7.48925 3
0 -2 8 -4.8067 11.2764 2
0 -2 8 2.51045 13.163 1
0 2 8 -1.0629 6.81866 2
0 2 8 -5.4429 5.91583 3
0 2 -8 -0.644 13.3339 2
0 2 -8 -4.1976 6.08106 3
1 -2 8 1033.52 50.1038 1
1 -2 8 1066.69 53.5671 2
-1 2 -8 1139.83 57.5122 2
1 2 8 1059.39 42.0051 2
-1 2 -8 1123.3 34.575 3
2 -2 8 938.407 51.6262 2
2 -2 8 936.71 45.6186 1
-2 2 -8 970.995 32.7473 3
-2 2 -8 883.843 53.5239 2
2 2 8 912.449 41.703 2
-3 -2 -8 2291.27 62.0739 3
3 -2 8 2288.48 89.9522 2
-3 2 -8 2343.53 66.5761 3
3 2 8 2307.12 80.6871 2
-3 2 -8 2284.47 91.5721 2
-4 -2 -8 943.376 30.9421 3
4 -2 8 979.124 57.4461 2
4 2 8 947.398 50.9141 2
-4 2 -8 968.832 39.5452 3
-4 2 -8 967.911 57.9237 2
-5 -2 -8 69.4736 9.40201 3
5 -2 8 77.8945 24.9439 2
5 2 8 49.1734 21.2761 2
-5 2 -8 96.4823 23.6929 2
-5 2 -8 92.9812 19.4087 3
-6 -2 -8 22.6957 7.23597 3
6 -2 8 38.4393 19.8382 2
-6 2 -8 -19.311 19.6865 2
6 2 8 44.0985 19.9854 2
7 -2 8 286.108 42.9846 2
-7 2 -8 348.783 47.5706 2
7 2 8 355.648 45.3001 2
8 -2 8 1016.88 48.8678 1
8 -2 8 1063.57 73.4416 2
-8 2 -8 1078.78 70.3882 2
8 2 8 1032.25 68.3582 2
9 -2 8 1221.24 55.2279 1
9 -2 8 1177.12 84.9367 2
-9 2 -8 1252.29 78.4762 2
9 2 8 1140.34 76.3863 2
9 2 8 1156.31 71.0337 1
10 -2 8 285.856 54.5242 2
10 -2 8 170.788 28.2852 1
10 2 8 136.724 38.2107 2
10 2 8 182.626 36.6366 1
11 -2 8 138.693 52.1749 2
11 -2 8 228.76 35.713 1
11 2 8 221.498 51.4856 2
11 2 8 192.926 39.5807 1
12 -2 8 -0.6558 34.4792 1
12 -2 8 84.3602 59.3637 2
12 2 8 72.8946 47.8983 2
12 2 8 -37.619 39.348 1
13 -2 8 338.865 71.2989 2
13 -2 8 367.283 53.0218 1
13 2 8 451.32 83.4304 2
13 2 8 401.523 66.4793 1
14 -2 8 103.222 81.1524 2
14 -2 8 173.202 59.5095 1
14 2 8 163.146 72.047 1
14 2 8 95.7616 78.821 2
15 -2 8 476.496 85.9054 1
15 2 8 628.019 112.279 1
17 -3 -8 -48.827 90.9649 2
-17 3 8 31.6053 77.6742 1
16 -3 -8 119.961 67.6948 2
-16 3 8 3.62757 61.8095 1
15 -3 -8 -60.479 52.9227 2
-15 -3 8 116.359 60.6655 1
15 3 -8 28.5167 85.8065 1
-15 3 8 75.1918 60.18 1
-14 -3 8 795.737 93.6334 1
14 3 -8 955.419 118.45 1
-14 3 8 848.443 91.1256 1
13 -3 -8 36.5163 34.0879 2
-13 -3 8 85.6421 44.1101 1
-13 3 8 11.7079 44.8683 1
13 3 -8 138.053 64.1424 1
-12 -3 8 931.916 82.5117 1
12 -3 -8 961.356 64.1041 2
-12 3 8 992.256 83.8825 1
12 3 -8 1259.88 110.573 1
-11 -3 8 49.7681 36.8457 1
11 -3 -8 30.2062 23.5523 2
11 3 -8 -39.448 39.7054 1
-11 3 8 45.7437 38.152 1
10 -3 -8 -20.597 17.4724 2
-10 -3 8 17.8824 12.5115 3
-10 -3 8 55.2834 31.089 1
10 3 -8 43.8954 42.6278 1
-10 3 8 7.38756 33.132 1
9 -3 -8 5.90543 15.1981 2
-9 -3 8 41.9157 28.9996 1
-9 -3 8 0.00009 11.0498 3
-9 3 8 32.3838 30.1222 1
9 3 -8 4.52764 33.0841 1
-8 -3 8 1375.26 51.6038 3
8 -3 -8 1354.13 51.8092 2
-8 -3 8 1599.5 80.6901 1
-8 3 8 1310.83 78.8169 1
8 3 -8 1469.94 91.3576 1
7 -3 -8 17.6163 9.52629 2
-7 -3 8 20.221 9.99502 3
-7 -3 8 5.02456 21.0592 1
-7 3 8 -4.5039 24.9984 1
7 3 -8 -16.068 24.3904 1
-6 -3 8 1043.86 63.8428 1
-6 -3 8 1169.7 41.8127 3
-6 3 8 1091.66 65.4 1
6 3 -8 1093.26 62.4264 2
6 3 -8 1105.59 72.3571 1
-5 -3 8 22.2251 8.10847 3
-5 -3 8 48.6931 20.1537 1
5 3 -8 1.37928 22.5636 1
-5 3 8 26.2966 22.8492 1
5 3 -8 27.4524 17.9131 2
-4 -3 8 34.05 8.88709 3
-4 -3 8 25.806 19.1036 1
-4 3 8 35.2875 18.863 3
4 3 -8 35.3049 17.4415 2
4 3 -8 40.7016 22.3915 1
-3 -3 8 110.26 21.8345 1
-3 -3 8 64.4814 11.0273 3
-3 3 8 79.0049 17.5863 3
3 3 -8 105.514 22.8955 2
3 3 -8 109.875 25.2025 1
-2 -3 8 1811.2 58.5029 3
-2 -3 8 1932.56 77.7521 1
2 3 -8 1954.54 83.0551 2
2 3 -8 1874.02 79.4815 1
-2 3 8 1974.64 58.3833 3
-1 -3 8 3.76889 12.1174 2
-1 -3 8 4.50942 15.23 1
-1 -3 8 -0.8008 8.61829 3
1 3 -8 -18.019 9.52792 3
1 3 -8 -2.8252 15.5037 2
-1 3 8 -3.0975 11.4396 3
0 -3 8 2258.15 67.5797 3
0 -3 8 2086.44 85.0293 2
0 -3 8 2228.46 81.4875 1
0 -3 -8 2288.1 65.362 3
0 3 -8 2164.59 63.0709 3
0 3 8 2210.31 61.5259 3
1 -3 8 4.67568 13.9416 2
-1 -3 -8 14.0502 8.68365 3
1 -3 8 13.9985 13.8978 1
1 3 8 21.6307 10.3413 2
-1 3 -8 -10.323 11.2726 3
1 3 8 -2.5656 9.64021 3
-1 3 -8 18.212 17.1251 2
2 -3 8 109.791 19.8896 1
-2 -3 -8 109.464 13.3083 3
2 -3 8 150.083 28.0083 2
2 3 8 121.202 18.2565 2
-2 3 -8 89.1386 23.6716 2
-2 3 -8 157.745 18.599 3
3 -3 8 19.6675 14.603 1
-3 -3 -8 19.7975 8.5826 3
3 -3 8 22.3478 19.4073 2
-3 3 -8 5.99222 18.9128 2
-3 3 -8 -18.286 15.4315 3
3 3 8 24.4516 14.923 2
-4 -3 -8 2316.22 67.5231 3
4 -3 8 2375.52 98.3774 2
4 -3 8 2338.55 77.8167 1
-4 3 -8 2302.87 99.438 2
4 3 8 2379.83 84.5127 2
5 -3 8 284.709 25.7355 1
5 -3 8 204.903 33.9594 2
-5 -3 -8 252.701 18.202 3
-5 3 -8 240.749 35.7985 2
5 3 8 281.569 35.5011 2
-6 -3 -8 3462.99 97.589 3
6 -3 8 3605.44 105.914 1
6 3 8 3632.25 123.419 2
7 -3 8 22.9272 13.9148 1
7 -3 8 11.1633 28.5932 2
-7 -3 -8 26.5029 9.97079 3
-7 3 -8 24.9319 27.16 2
7 3 8 27.8987 23.9762 2
-8 -3 -8 62.8975 12.849 3
8 -3 8 83.4627 17.9562 1
8 -3 8 32.7789 32.7773 2
8 3 8 101.655 32.8223 2
-8 3 -8 -13.042 32.3729 2
8 3 8 58.2043 26.4243 1
9 -3 8 -58.409 37.3211 2
-9 -3 -8 -31.098 14.1147 3
9 -3 8 -10.021 17.2464 1
9 3 8 72.0246 36.0333 2
9 3 8 -21.194 25.4898 1
-9 3 -8 20.2217 34.8039 2
10 -3 8 862.701 93.2212 2
10 -3 8 1092.04 52.638 1
-10 -3 -8 887.966 43.6995 3
-10 3 -8 1101.59 84.2367 2
10 3 8 958.745 83.6109 2
10 3 8 935.433 75.5156 1
-11 -3 -8 22.6782 16.8642 3
11 -3 8 13.4396 27.5538 1
11 -3 8 5.51999 49.498 2
11 3 8 9.10497 43.7343 2
11 3 8 62.495 42.8389 1
12 -3 8 1508.74 75.8708 1
-12 -3 -8 1337.91 57.9371 3
12 -3 8 1302.71 123.39 2
12 3 8 1248.7 114.798 2
12 3 8 1521.01 107.271 1
13 -3 8 35.775 42.6369 1
13 -3 8 70.6177 66.2411 2
-13 -3 -8 27.5032 21.6315 3
13 3 8 -125.24 62.3673 2
13 3 8 27.0908 60.6151 1
-14 -3 -8 57.2929 25.8458 3
14 3 8 166.887 77.9598 2
-15 -3 -8 25.095 26.9616 3
16 -4 -8 225.146 87.3865 2
-16 -4 8 139.094 28.8337 3
-16 4 8 288.733 75.4677 1
15 -4 -8 458.396 65.5797 2
-15 -4 8 458.251 48.2281 3
-15 4 8 634.172 80.845 1
-14 -4 8 119.797 61.3117 1
-14 4 8 158.726 54.3603 1
14 4 -8 113.208 92.7817 1
-13 -4 8 -6.4366 18.3765 3
-13 -4 8 -66.863 44.8647 1
13 -4 -8 -7.8954 37.7187 2
13 4 -8 102.567 77.3388 1
-13 4 8 -124.2 77.4754 1
-12 -4 8 7.28474 18.2573 3
12 -4 -8 27.1747 32.3358 2
-12 -4 8 -51.681 40.6875 1
-12 4 8 -8.2173 40.4531 1
12 4 -8 112.45 58.6015 1
11 -4 -8 680.464 51.5739 2
-11 -4 8 764.81 75.2818 1
-11 -4 8 697.245 43.5275 3
11 4 -8 945.302 104.109 1
-11 4 8 664.469 75.3036 1
-10 -4 8 311.379 31.3064 3
10 -4 -8 352.415 35.9523 2
-10 -4 8 423.164 58.5258 1
-10 4 8 375.064 51.0458 1
10 4 -8 377.529 60.4634 1
-9 -4 8 1491.59 86.0024 1
9 -4 -8 1415.78 53.8392 2
-9 -4 8 1378.26 57.0745 3
9 4 -8 1445.79 101 1
-9 4 8 1502.51 89.5384 1
-8 -4 8 220.278 25.7967 3
-8 -4 8 133.985 33.3456 1
-8 4 8 199.05 41.0519 1
8 4 -8 172.245 36.6775 2
8 4 -8 114.253 41.4381 1
-7 -4 8 0.81746 27.6572 1
-7 -4 8 38.3335 15.4017 3
-7 4 8 50.397 32.3792 1
7 4 -8 63.1326 25.7789 2
-6 -4 8 181.026 33.4696 1
-6 -4 8 193.295 24.4985 3
6 4 -8 178.937 33.6414 2
-6 4 8 163.435 35.4463 1
6 4 -8 191.55 39.5963 1
-5 -4 8 1379.13 70.8063 1
5 4 -8 1447.8 77.5913 2
5 4 -8 1480.49 82.4341 1
-5 4 8 1402.66 75.1363 1
-4 -4 8 95.1821 21.2873 1
-4 -4 8 134.153 18.1216 3
4 4 -8 108.8 29.1812 1
4 4 -8 76.9109 24.437 2
-3 -4 8 2741.96 101.226 1
-3 -4 8 2661.7 83.4748 3
3 4 -8 2831.35 111.347 2
3 4 -8 2755.71 107.005 1
-2 -4 8 156.073 27.5402 1
-2 -4 8 151.212 19.7004 3
2 4 -8 195.505 33.186 1
2 4 -8 229.344 37.9826 2
-1 -4 8 222.315 30.1958 1
-1 -4 8 226.817 21.244 3
1 4 -8 140.175 27.7476 2
1 4 -8 207.5 31.591 1
0 -4 -8 -15.522 10.6437 3
0 -4 8 5.74525 10.9686 3
0 -4 8 1.36967 15.4063 2
0 -4 8 -33.721 15.1316 1
0 4 -8 -10.382 18.4074 2
1 -4 8 1020.92 47.1111 1
1 -4 8 970.575 58.0454 2
-1 -4 -8 958.993 39.5769 3
1 4 8 979.823 38.8089 2
-1 4 -8 997.216 63.7915 2
2 -4 8 669.564 50.7963 2
2 -4 8 649.57 36.2829 1
-2 -4 -8 630.139 31.3143 3
-2 4 -8 591.076 56.0462 2
2 4 8 656.09 34.7028 2
3 -4 8 1426.47 75.2452 2
-3 -4 -8 1416.63 49.5286 3
3 -4 8 1357 51.5868 1
3 4 8 1371.07 57.9895 2
-3 4 -8 1458.72 81.4263 2
-4 -4 -8 331.145 23.1945 3
4 -4 8 333.346 24.5806 1
-4 4 -8 326.761 62.6929 2
4 4 8 368.109 39.4039 2
5 -4 8 409.64 54.6503 2
-5 -4 -8 345.831 23.8637 3
5 4 8 386.547 43.2979 2
-5 4 -8 449.669 55.7893 2
6 -4 8 -21.44 27.0034 2
-6 -4 -8 10.9219 12.1056 3
-6 4 -8 -1.4987 27.8536 2
6 4 8 -1.6114 24.8409 2
-7 -4 -8 525.496 33.362 3
7 -4 8 534.74 66.2807 2
7 4 8 578.322 58.2072 2
7 4 8 541.303 53.1887 1
-7 4 -8 489.932 64.2584 2
8 -4 8 322.924 53.1949 2
-8 -4 -8 316.599 30.4373 3
-8 4 -8 424.285 57.7849 2
8 4 8 316.582 55.8202 2
8 4 8 348.675 45.4237 1
9 -4 8 786.989 92.9142 2
-9 -4 -8 906.07 44.215 3
9 4 8 1031.09 83.4213 2
9 4 8 926.775 74.2025 1
-9 4 -8 826.019 88.0887 2
10 -4 8 148.028 58.0314 2
-10 -4 -8 149.354 23.7102 3
10 4 8 102.667 43.8519 1
10 4 8 181.788 47.5629 2
-10 4 -8 223.779 52.422 2
-11 -4 -8 98.5099 22.799 3
11 -4 8 222.526 64.5941 2
-11 4 -8 211.437 64.9634 2
11 4 8 150.377 52.5952 1
11 4 8 210.573 57.8036 2
-12 -4 -8 16.2522 22.7931 3
12 -4 8 63.5468 72.246 2
12 4 8 -71.775 59.3841 2
12 4 8 -46.091 60.0301 1
-13 -4 -8 317.821 35.1172 3
13 4 8 168.85 83.189 2
-14 -4 -8 93.2733 31.9426 3
-15 -5 8 31.8676 29.6202 3
-14 -5 8 206.342 33.1926 3
-14 5 8 167.947 108.159 1
-13 -5 8 526.962 47.4415 3
-13 -5 8 580.894 80.3018 1
13 -5 -8 543.677 55.5908 2
13 5 -8 497.887 109.946 1
-13 5 8 615.741 74.4417 1
-12 -5 8 272.379 35.7469 3
-12 -5 8 216.651 62.377 1
12 -5 -8 282.636 41.6054 2
-12 5 8 316.249 60.4477 1
12 5 -8 321.985 88.479 1
-11 -5 8 177.208 55.6003 1
11 -5 -8 150.807 28.0581 2
-11 -5 8 209.582 29.0647 3
-11 5 8 191.946 52.9631 1
11 5 -8 254.346 73.9226 1
10 -5 -8 34.9619 20.4798 2
-10 -5 8 -7.867 38.267 1
-10 -5 8 26.1292 19.5823 3
-10 5 8 68.3289 46.9792 1
10 5 -8 52.6003 43.7111 2
10 5 -8 112.089 58.1253 1
-9 -5 8 347.754 50.4616 1
-9 -5 8 299.59 33.85 3
9 5 -8 303.358 54.2253 2
-9 5 8 430.38 54.6953 1
9 5 -8 275.27 58.1399 1
-8 -5 8 376.072 36.2535 3
-8 -5 8 315.764 43.7933 1
8 5 -8 263.447 51.6657 1
-8 5 8 374.423 53.0233 1
8 5 -8 412.612 52.4794 2
-7 -5 8 865.794 47.8675 3
-7 -5 8 926.917 68.1999 1
7 5 -8 900.312 72.2666 2
7 5 -8 834.448 81.6689 1
-7 5 8 884.243 76.1812 1
-6 -5 8 693.01 68.9532 1
-6 -5 8 692.415 41.7637 3
6 5 -8 675.439 75.4558 1
-6 5 8 822.641 72.7799 1
6 5 -8 758.671 66.8843 2
-5 -5 8 786.655 43.7049 3
-5 -5 8 890.88 59.238 1
5 5 -8 843.638 74.7175 1
5 5 -8 769.143 64.9922 2
-4 -5 8 7.14236 23.0013 1
-4 -5 8 32.6635 15.6173 3
4 5 -8 38.4599 26.9818 2
4 5 -8 42.9761 29.6517 1
-3 -5 8 257.464 33.0338 1
-3 -5 8 298.2 31.7363 3
3 5 -8 264.223 39.6948 2
3 5 -8 279.42 42.0814 1
-2 -5 8 588.993 38.7237 3
-2 -5 8 644.284 45.0815 1
2 5 -8 564.698 57.1323 2
2 5 -8 660.972 58.3806 1
-1 -5 8 1691.63 69.1503 1
-1 -5 8 1671.36 65.6357 3
1 5 -8 1597.24 78.0534 1
1 5 -8 1581.77 86.7987 2
0 -5 8 844.142 46.3045 3
0 -5 8 788.481 44.0986 1
0 -5 -8 823.792 43.0241 3
0 5 -8 801.868 66.7188 2
1 -5 8 456.411 49.7505 2
1 -5 8 363.605 30.1425 1
-1 -5 -8 402.689 32.0589 3
-1 5 -8 448.438 55.1932 2
2 -5 8 60.7904 23.826 2
2 -5 8 -2.5912 12.3052 1
-2 5 -8 55.9882 31.1973 2
2 5 8 34.1027 17.6259 2
3 -5 8 0.80564 25.2047 2
-3 -5 -8 60.901 19.8936 3
-3 5 -8 21.957 32.5898 2
3 5 8 12.4814 19.2085 2
4 -5 8 562.562 59.8747 2
-4 -5 -8 591.909 39.0014 3
-4 5 -8 638.07 69.0723 2
4 5 8 612.38 47.7033 2
5 -5 8 889.861 75.236 2
-5 -5 -8 777.205 44.1056 3
-5 5 -8 829.587 73.1102 2
5 5 8 860.529 57.2341 2
6 -5 8 831.76 80.9487 2
-6 -5 -8 706.751 42.5485 3
6 5 8 801.536 63.0057 2
6 5 8 784.39 63.1431 1
-6 5 -8 734.629 77.3562 2
7 -5 8 411.087 66.7711 2
-7 -5 -8 411.956 36.4504 3
7 5 8 482.647 62.6114 2
7 5 8 435.101 55.2313 1
-7 5 -8 438.019 63.3285 2
8 -5 8 33.6675 50.5049 2
-8 -5 -8 23.6898 21.5241 3
8 5 8 58.6565 38.9099 2
-8 5 -8 8.24813 47.9183 2
8 5 8 56.5651 39.5987 1
9 -5 8 56.1138 57.1112 2
-9 -5 -8 86.1226 25.8385 3
9 5 8 40.1989 48.7388 2
-9 5 -8 74.8361 56.5512 2
9 5 8 7.935 44.8376 1
-10 -5 -8 251.566 33.9369 3
10 -5 8 199.39 67.6874 2
-10 5 -8 277.176 67.0804 2
10 5 8 109.698 57.272 1
10 5 8 224.082 66.7594 2
11 -5 8 689.056 99.6683 2
-11 -5 -8 747.287 55.8402 3
-11 5 -8 730.293 92.9171 2
11 5 8 727.523 88.4966 2
-12 -5 -8 419.144 47.5811 3
12 5 8 255.544 85.0155 2
-13 -5 -8 351.385 46.0785 3
-14 -6 8 120.837 35.8128 3
-13 -6 8 -38.144 23.3851 3
-12 -6 8 278.065 43.7064 3
-12 6 8 136.592 62.326 1
-11 -6 8 -8.1269 56.6447 1
-11 -6 8 8.38473 27.7565 3
-11 6 8 9.35409 51.0072 1
11 6 -8 38.9904 79.3439 2
11 6 -8 -22.779 88.6894 1
-10 -6 8 817.966 55.5592 3
-10 -6 8 682.58 92.5063 1
10 6 -8 816.351 109.419 1
10 6 -8 623.615 83.5614 2
-10 6 8 795.777 97.6536 1
-9 -6 8 -8.5841 25.2598 3
-9 -6 8 -24.447 42.3907 1
9 6 -8 31.3708 62.7843 1
-9 6 8 17.4315 47.75 1
9 6 -8 3.41033 51.4209 2
-8 -6 8 316.915 55.7522 1
-8 -6 8 377.971 43.1477 3
8 6 -8 247.001 65.2337 1
-8 6 8 302.606 57.8658 1
8 6 -8 313.491 57.7 2
-7 -6 8 38.2251 20.9075 3
-7 -6 8 13.4791 37.8841 1
7 6 -8 64.274 51.8063 1
-7 6 8 -0.2061 48.6043 1
-6 -6 8 143.559 40.7561 1
-6 -6 8 56.2618 24.8729 3
6 6 -8 65.7755 42.5149 2
6 6 -8 29.2757 42.9989 1
-6 6 8 127.451 45.5959 1
-5 -6 8 22.2376 28.5481 1
-5 -6 8 47.8088 21.6785 3
5 6 -8 49.6934 38.6031 2
5 6 -8 83.8555 46.3416 1
-4 -6 8 1529.28 67.6694 3
-4 -6 8 1472.03 76.5283 1
4 6 -8 1543.55 95.7009 1
4 6 -8 1545.96 98.874 2
-3 -6 8 5.64734 20.9253 3
-3 -6 8 53.534 24.4841 1
3 6 -8 55.0365 36.594 1
3 6 -8 -8.6604 36.6797 2
-2 -6 8 369.122 40.693 3
-2 -6 8 336.003 42.0028 1
2 6 -8 386.422 54.6308 2
2 6 -8 440.014 54.3791 1
-1 -6 8 15.9641 20.2684 1
-1 -6 8 0.89316 20.3263 3
1 6 -8 -18.489 33.0726 2
1 6 -8 -17.067 32.81 1
0 -6 8 160.61 30.9706 3
0 -6 8 193.466 24.2018 1
0 6 -8 204.954 45.5988 2
1 -6 8 35.7369 15.7006 1
-1 -6 -8 15.936 22.7334 3
-1 6 -8 16.3403 35.9815 2
2 -6 8 1878.5 100.228 2
-2 -6 -8 1874.12 74.8806 3
2 6 8 1643.25 65.5764 2
2 6 8 1741.12 67.1005 2
-2 6 -8 1853.12 104.517 2
3 -6 8 75.1353 42.273 2
-3 -6 -8 67.8454 24.8994 3
-3 6 -8 95.3123 44.5129 2
3 6 8 87.4938 26.8683 2
3 6 8 62.0236 23.2214 2
-4 -6 -8 592.907 45.8973 3
4 -6 8 783.854 78.1562 2
-4 6 -8 613.405 72.0427 2
4 6 8 831.875 68.867 1
4 6 8 589.056 53.4091 2
-5 -6 -8 -21.99 23.3177 3
5 -6 8 50.0347 43.2218 2
5 6 8 13.2441 36.3075 1
-5 6 -8 -27.198 42.4428 2
5 6 8 -20.131 31.0754 2
-6 -6 -8 84.7415 27.0581 3
6 -6 8 -5.7494 46.7702 2
-6 6 -8 77.6914 58.7274 2
6 6 8 3.73763 36.8448 2
6 6 8 76.8935 45.2391 1
7 -6 8 52.6283 55.5942 2
-7 -6 -8 -25.208 24.5045 3
-7 6 -8 36.1961 56.6322 2
7 6 8 -62.53 40.6658 2
7 6 8 10.5078 46.1232 1
-8 -6 -8 1480.61 71.4275 3
8 -6 8 1417.27 129.85 2
8 6 8 1190.03 115.25 1
-8 6 -8 1487.17 133.252 2
8 6 8 1506.08 107.122 2
-9 -6 -8 27.8029 27.9284 3
9 -6 8 70.589 73.9231 2
9 6 8 -11.17 64.7075 1
9 6 8 13.3756 63.1861 2
-9 6 -8 -22.689 78.5327 2
-10 -6 -8 507.42 57.023 3
10 6 8 523.566 85.476 2
-11 -6 -8 -28.217 34.8023 3
11 6 8 -4.2572 86.7644 2
-11 -7 8 233.942 40.7509 3
10 7 -8 100.288 144.111 1
-9 -7 8 139.523 37.4687 3
-9 -7 8 -44.042 55.8519 1
-9 7 8 183.102 67.9089 1
9 7 -8 147.322 100.899 1
-8 -7 8 31.016 50.5109 1
-8 -7 8 58.6671 28.1497 3
8 7 -8 127.625 82.39 1
-8 7 8 -18.911 61.1994 1
8 7 -8 146.201 72.5618 2
-7 -7 8 1059.45 66.7598 3
-7 -7 8 1195.2 95.8474 1
7 7 -8 1376.45 146.058 1
7 7 -8 1238.59 126.946 2
-7 7 8 1106.56 108.173 1
-6 -7 8 100.732 28.817 3
-6 -7 8 74.9339 43.659 1
-6 7 8 85.8361 58.5594 1
6 7 -8 203.697 67.7779 2
6 7 -8 30.3768 63.3047 1
-5 -7 8 590.498 54.3893 3
-5 -7 8 601.616 67.6706 1
5 7 -8 461.826 77.2336 1
5 7 -8 628.814 81.3471 2
-4 -7 8 10.0282 26.9624 3
4 7 -8 30.8563 53.2974 1
4 7 -8 -17.583 53.0929 2
-3 -7 8 150.749 32.0424 3
3 7 -8 231.829 58.7223 1
3 7 -8 222.74 58.6245 2
-2 -7 8 128.478 37.0612 3
2 7 -8 108.122 57.9885 2
2 7 -8 84.5699 48.1679 1
-1 -7 8 1230.99 70.1384 3
1 7 -8 1116.58 88.9761 1
1 7 -8 1117.06 104.502 2
0 -7 8 75.0664 33.0058 3
0 7 -8 92.3773 56.7561 2
-1 -7 -8 681.724 57.2554 3
1 7 8 609.447 65.2115 1
-1 7 -8 742.068 88.1991 2
-2 -7 -8 9.56145 31.1052 3
2 7 8 9.43064 39.5016 1
2 7 8 18.4127 26.7972 2
-2 7 -8 116.318 57.0973 2
2 7 8 41.1514 29.16 2
-3 -7 -8 91.098 33.0018 3
3 7 8 54.8918 33.5104 2
-3 7 -8 70.4522 60.4051 2
3 7 8 111.983 32.9729 2
3 7 8 68.3223 46.1088 1
4 -7 8 58.299 51.326 2
-4 -7 -8 122.676 33.0817 3
4 7 8 -1.5427 37.532 2
4 7 8 80.8214 49.0439 1
-4 7 -8 80.7523 65.1255 2
4 7 8 34.8679 37.8956 2
-5 -7 -8 1000.57 65.8866 3
5 -7 8 992.829 107.383 2
5 7 8 868.064 81.7452 2
-5 7 -8 984.525 128.747 2
5 7 8 904.599 78.0975 2
5 7 8 912.024 104.694 1
6 -7 8 -33.076 58.0556 2
-6 -7 -8 100.074 35.4484 3
-6 7 -8 140.222 79.4448 2
6 7 8 152.029 67.7209 1
7 -7 8 403.938 87.2242 2
-7 -7 -8 434.377 48.2337 3
7 7 8 451.351 72.8092 2
-7 7 -8 288.314 92.4474 2
-8 -7 -8 108.123 38.4313 3
8 7 8 26.3372 72.914 2
-9 -7 -8 29.1258 36.4498 3
9 7 8 -59.804 84.2833 2
-8 -8 8 137.197 39.2008 3
8 8 -8 -6.4579 122.474 1
-7 -8 8 -7.6002 38.0609 3
7 8 -8 124.304 111.843 1
-6 -8 8 16.563 38.835 3
6 8 -8 171.427 101.613 1
-5 -8 8 351.437 49.8113 3
5 8 -8 202.486 89.4796 1
-5 8 8 285.585 61.6762 1
-5 8 8 451.636 86.9316 1
-4 -8 8 369.358 50.4233 3
4 8 -8 425.621 83.8051 1
-4 8 8 437.501 61.8957 1
-3 -8 8 562.193 63.4414 3
3 8 -8 472.027 88.1385 2
-3 8 8 647.239 87.1837 1
3 8 -8 486.419 84.4474 1
-2 -8 8 103.612 38.0898 3
2 8 -8 233.625 73.9874 1
2 8 -8 158.006 74.3349 2
-2 8 8 163.671 58.7716 1
-1 -8 8 -0.7049 33.8703 3
-1 8 8 -78.647 54.265 1
1 8 -8 -57.053 57.8878 1
1 8 -8 -23.979 73.0774 2
0 8 8 -92.097 54.3993 1
0 8 -8 -70.143 76.6973 2
1 8 8 251.521 67.0758 1
-1 8 -8 127.767 82.2962 2
-2 -8 -8 412.709 56.2157 3
2 8 8 304.463 75.8059 1
-2 8 -8 210.493 96.1567 2
-3 -8 -8 604.068 67.3445 3
3 8 8 633.281 89.0016 1
-3 8 -8 579.276 119.059 2
-4 -8 -8 266.169 51.9901 3
4 8 8 326.988 87.8147 1
-5 -8 -8 8.00646 41.1504 3
-6 -8 -8 64.8835 44.4263 3
17 0 -9 539.497 123.049 1
16 0 -9 97.7957 93.5821 1
-16 0 9 -151.22 55.0748 1
15 0 -9 651.723 101.726 1
-15 0 9 676.503 86.1415 1
14 0 -9 -0.653 57.0386 1
-14 0 9 47.7813 43.3406 1
-13 0 9 6.83376 39.1556 1
13 0 -9 -2.2595 48.86 1
12 0 -9 60.8792 46.9567 1
-12 0 9 23.2821 37.3138 1
-11 0 9 1913.76 104.837 1
11 0 -9 2039.23 112.94 1
-10 0 9 -1.9261 28.4938 1
10 0 -9 1.28991 38.2194 1
9 0 -9 767.894 66.3576 1
-9 0 9 807.203 64.7072 1
8 0 -9 -19.515 21.6199 1
-8 0 9 41.2005 26.1429 1
7 0 -9 23.6062 18.369 1
-7 0 9 43.6089 22.3859 1
-6 0 9 22.0084 20.3115 1
5 0 -9 2077.45 73.212 2
-5 0 9 2157.76 92.6959 1
-4 0 9 23.5115 16.4737 1
3 0 -9 1477 58.0121 2
-3 0 9 1477.37 70.9579 1
2 0 -9 20.7652 11.0425 2
-2 0 9 -21.224 13.7939 1
1 0 -9 3.61292 11.0953 2
-1 0 9 4.42267 10.7813 2
0 0 -9 5.00175 11.9348 2
0 0 9 -4.8869 8.92783 2
1 0 9 2615.29 88.0856 2
-1 0 -9 2619.12 88.5973 2
2 0 9 -7.041 13.708 2
-2 0 -9 23.3459 14.8937 2
-3 0 -9 2165.12 81.3142 2
3 0 9 2058.81 81.2939 2
-4 0 -9 -2.5484 15.4242 2
4 0 9 12.6102 17.1056 2
5 0 9 16.8336 18.9644 2
-5 0 -9 3.80928 16.7831 2
-6 0 -9 -19.107 18.9122 2
6 0 9 17.4234 20.0313 2
7 0 9 1663.72 85.9039 2
8 0 9 -290.78 322.955 4
-8 0 -9 -95.397 472.233 4
9 0 9 2318.79 93.3772 1
9 0 9 2663.97 121.631 2
10 0 9 -70.441 35.5738 2
10 0 9 -12.868 26.3493 1
11 0 9 18.2925 47.0042 2
11 0 9 43.1511 29.8721 1
12 0 9 -3.3522 33.0409 1
12 0 9 7.03526 50.401 2
13 0 9 674.488 84.2896 1
13 0 9 801.857 98.9066 2
14 0 9 -35.55 61.8972 1
14 0 9 99.4134 76.6238 2
15 0 9 755.108 98.9734 1
16 0 9 -268.68 98.9614 1
18 -1 -9 207.371 95.5801 2
-18 1 9 248.056 159.644 1
17 -1 -9 239.534 104.425 1
17 -1 -9 39.9758 79.6096 2
-17 1 9 83.3408 75.1231 1
-16 -1 9 43.676 60.6755 1
16 -1 -9 -13.238 58.2282 2
16 -1 -9 -110.33 84.1191 1
16 1 -9 -46.324 86.4407 1
-16 1 9 -20.464 66.2011 1
15 -1 -9 124.245 68.9032 1
-15 -1 9 289.109 61.281 1
-15 1 9 179.33 62.2379 1
15 1 -9 166.07 72.4271 1
-14 -1 9 527.496 69.2929 1
14 -1 -9 530.032 75.9295 1
14 1 -9 573.942 90.8307 1
-14 1 9 423.887 65.2484 1
-13 -1 9 347.587 61.1707 1
13 -1 -9 250.892 55.5178 1
13 1 -9 306.755 66.6118 1
-13 1 9 285.146 56.5066 1
12 -1 -9 737.754 83.6608 1
-12 -1 9 856.808 82.3443 1
-12 1 9 691.79 76.5124 1
12 1 -9 722.937 85.3243 1
-11 -1 9 111.948 36.5548 1
11 -1 -9 164.811 40.7282 1
11 1 -9 111.778 41.0935 1
-11 1 9 109.276 41.5378 1
10 -1 -9 105.817 33.7182 1
-10 -1 9 131.629 35.041 1
-10 1 9 132.203 36.2059 1
10 1 -9 122.452 41.3807 1
-9 -1 9 493.122 53.5477 1
9 1 -9 420.292 51.4846 1
-9 1 9 520.278 59.9053 1
-8 -1 9 1752.7 87.6733 1
-8 1 9 1740.87 89.0561 1
8 1 -9 1699.53 91.75 1
-7 -1 9 386.143 48.6904 1
7 1 -9 384.717 49.4779 1
-7 1 9 400.307 47.63 1
-6 -1 9 1869.64 87.7616 1
6 1 -9 1850.63 73.9331 2
-6 1 9 1845.43 88.3195 1
6 1 -9 1960.96 89.3362 1
5 -1 -9 142.688 19.7455 2
-5 -1 9 151.764 27.4867 1
5 1 -9 164.759 25.3282 2
-5 1 9 127.137 24.3392 1
5 1 -9 150.174 29.4726 1
-4 -1 9 119.746 10.2621 3
-4 -1 9 120.225 25.7266 1
4 -1 -9 96.1833 13.611 2
-4 1 9 130.696 26.6814 1
4 1 -9 106.404 19.9338 2
-3 -1 9 46.6306 7.06981 3
-3 -1 9 24.5435 19.0269 1
3 -1 -9 47.7152 12.0097 2
-3 1 9 45.647 19.4674 1
3 1 -9 58.4815 15.5653 2
2 -1 -9 3237.9 94.2916 2
-2 -1 9 3276.51 114.271 1
2 1 -9 3263.12 106.956 2
1 -1 -9 1978.94 65.5345 2
-1 -1 9 1988.58 73.5753 2
-1 -1 9 1956.73 81.0342 1
1 1 -9 2033.61 78.4649 2
-1 1 9 2034.66 64.1222 2
0 -1 9 3118.02 100.951 2
0 -1 9 3131 105.618 1
0 -1 -9 3010.84 92.5101 2
0 1 -9 2991.97 103.004 2
0 1 9 2985.64 91.7744 2
-1 -1 -9 113.728 17.0985 2
1 -1 9 116.45 22.0116 2
1 1 9 87.6766 15.5314 2
-1 1 -9 87.3792 20.144 2
-2 -1 -9 -3.8704 11.9355 2
2 -1 9 12.764 14.5792 2
2 1 9 7.37535 12.7494 2
-2 1 -9 -0.5127 13.8617 2
-3 -1 -9 229.058 26.8723 2
3 -1 9 257.719 33.1197 2
3 1 9 215.443 28.0824 2
-3 1 -9 217.58 31.5284 2
4 -1 9 2379.1 97.3265 2
4 1 9 2487.53 92.9236 2
-4 1 -9 2634.16 71.0278 3
-4 1 -9 2447.79 96.9187 2
5 -1 9 740.941 55.2621 2
5 1 9 857.205 53.6686 2
-5 1 -9 807.121 54.1864 2
6 -1 9 1297.18 73.8551 2
-6 1 -9 1285.35 71.7957 2
6 1 9 1342.17 70.5273 2
7 -1 9 389.652 50.2904 2
-7 1 -9 339.227 45.3231 2
7 1 9 436.821 49.6261 2
8 -1 9 33.1108 28.5787 2
8 1 9 18.6205 27.8826 2
-8 1 -9 10.1808 25.2715 2
9 -1 9 27.0689 20.448 1
9 -1 9 18.3878 32.8918 2
9 1 9 -32.22 23.0612 1
9 1 9 40.2556 35.6088 2
10 -1 9 887.215 88.2325 2
10 -1 9 1016.73 60.7104 1
10 1 9 793.812 85.9108 2
10 1 9 1001.66 67.9159 1
11 -1 9 547.249 72.6893 2
11 -1 9 527.358 57.063 1
11 1 9 506.561 56.4384 1
11 1 9 472.076 72.7224 2
12 -1 9 965.232 109.552 2
12 -1 9 815.049 85.8843 1
12 1 9 821.83 79.2542 1
12 1 9 830.637 112.128 2
13 -1 9 26.2291 68.8942 2
13 -1 9 170.399 52.1165 1
13 1 9 123.473 72.9022 2
13 1 9 12.472 53.5626 1
14 -1 9 105.436 60.6217 1
14 1 9 -12.55 81.7244 2
14 1 9 -2.004 68.7235 1
15 -1 9 17.1754 71.6089 1
15 1 9 83.9414 92.9121 1
17 -2 -9 300.87 88.1733 2
-17 2 9 349.425 89.7311 1
16 -2 -9 340.758 76.9071 2
-16 -2 9 384.965 75.2326 1
16 2 -9 669.183 135.747 1
-16 2 9 464.861 83.0048 1
15 -2 -9 165.617 54.6907 2
-15 -2 9 108.132 56.9759 1
-15 2 9 16.8628 62.5069 1
15 2 -9 91.0486 77.8458 1
-14 -2 9 51.4834 49.8623 1
14 -2 -9 1.10574 43.0142 2
-14 2 9 118.909 55.7033 1
14 2 -9 -51.548 66.0684 1
-13 -2 9 -18.717 42.6697 1
13 -2 -9 43.1388 33.2943 2
-13 2 9 -100.11 41.0262 1
13 2 -9 -115.74 52.7682 1
12 -2 -9 416.769 47.9673 2
-12 -2 9 439.443 63.4365 1
12 2 -9 287.305 62.6102 1
-12 2 9 464.736 63.5664 1
-11 -2 9 472.97 56.9585 1
11 -2 -9 496.131 44.4592 2
-11 2 9 566.308 76.7923 1
11 2 -9 547.944 72.6705 1
-10 -2 9 928.376 72.7066 1
-10 2 9 952.226 77.0019 1
10 2 -9 1104.3 86.9808 1
-9 -2 9 724.061 65.3304 1
9 2 -9 796.302 72.1274 1
-9 2 9 751.951 67.8634 1
-8 -2 9 539.89 54.5962 1
8 2 -9 591.194 62.6722 1
-8 2 9 659.409 62.3957 1
-7 -2 9 -32.304 20.1296 1
7 2 -9 1.48578 23.8605 1
-7 2 9 -33.696 22.5585 1
6 -2 -9 1178.83 41.9307 2
-6 -2 9 1224.11 69.6608 1
-6 -2 9 1136.48 39.6218 3
-6 2 9 1107.19 66.85 1
6 2 -9 1215.34 71.1013 1
6 2 -9 1158.16 60.7073 2
-5 -2 9 738.734 53.3081 1
-5 -2 9 690.73 27.5746 3
5 -2 -9 709.266 28.4921 2
5 2 -9 629.109 45.8426 2
-5 2 9 663.738 52.4042 1
5 2 -9 744.918 55.5278 1
-4 -2 9 2068.79 58.2094 3
-4 -2 9 1986.57 87.5455 1
4 2 -9 1977.57 87.4505 1
-4 2 9 2050.29 62.1803 3
4 2 -9 1997.35 79.9922 2
-4 2 9 1976.19 87.0973 1
-3 -2 9 899.682 54.8974 1
-3 -2 9 895.29 31.7806 3
-3 2 9 1019.78 34.681 3
3 2 -9 884.978 51.6179 2
3 2 -9 911.838 55.6526 1
-2 -2 9 1229.59 62.2247 1
-2 -2 9 1223.15 38.3367 3
-2 2 9 1205.46 37.2305 3
2 2 -9 1108.77 59.4465 2
-1 -2 9 -0.7952 15.6987 1
-1 -2 9 8.21854 13.9577 2
-1 -2 9 2.63853 7.82972 3
-1 2 9 3.12405 6.56613 2
1 2 -9 8.70098 14.699 2
0 -2 9 625.569 42.8499 1
0 -2 9 618.668 41.4405 2
0 2 -9 629.065 22.9164 3
0 2 9 700.144 29.6722 2
0 2 -9 644.665 46.2283 2
1 -2 9 480.86 38.7714 2
1 -2 9 491.185 38.7387 1
-1 2 -9 433.38 40.2563 2
-1 2 -9 528.046 21.3816 3
1 2 9 509.697 29.7844 2
2 -2 9 2066.96 78.2744 1
2 -2 9 2011.81 84.9498 2
-2 2 -9 2002.01 85.9955 2
-2 2 -9 2079.55 57.9633 3
2 2 9 2089 72.7408 2
3 -2 9 668.339 48.8353 2
3 -2 9 719.418 42.7753 1
3 2 9 745.356 42.3582 2
-3 2 -9 652.63 49.2388 2
-3 2 -9 731.075 31.4456 3
-4 -2 -9 527.714 21.0124 3
4 -2 9 573.19 48.1407 2
-4 2 -9 606.133 49.8089 2
4 2 9 554.238 40.4882 2
-4 2 -9 524.712 31.2976 3
5 -2 9 161.916 34.0934 2
-5 -2 -9 91.7888 9.84914 3
-5 2 -9 47.3928 21.0087 2
-5 2 -9 89.8387 20.342 3
5 2 9 88.2605 23.8157 2
-6 -2 -9 186.536 13.9773 3
6 -2 9 204.268 38.7964 2
-6 2 -9 164.875 32.5779 2
6 2 9 158.771 31.2492 2
7 -2 9 510.295 57.6701 2
-7 -2 -9 473.45 22.689 3
7 2 9 570.169 56.0318 2
-7 2 -9 501.102 55.5427 2
8 -2 9 1296.64 87.6239 2
8 2 9 1325.53 80.7653 2
-8 2 -9 1346.94 81.6951 2
9 -2 9 588.873 73.1197 2
9 -2 9 578.741 42.9038 1
-9 2 -9 584.663 64.2927 2
9 2 9 528.318 67.6517 2
9 2 9 568.198 55.5539 1
10 -2 9 248.36 35.223 1
10 -2 9 306.181 49.9417 2
10 2 9 320.592 55.4335 2
10 2 9 436.278 58.0966 1
11 -2 9 -17.666 29.0679 1
11 -2 9 69.3919 49.8501 2
11 2 9 8.2069 33.9766 1
11 2 9 1.51772 46.403 2
12 -2 9 158.565 39.7059 1
12 -2 9 284.761 67.6355 2
12 2 9 45.3995 58.2098 2
12 2 9 97.2497 48.8706 1
13 -2 9 92.8703 72.1723 2
13 -2 9 190.186 46.622 1
13 2 9 20.8555 60.8582 1
13 2 9 54.3878 67.0838 2
14 2 9 606.013 92.6607 1
14 2 9 553.802 131.715 2
17 -3 -9 22.1971 94.1359 2
-17 3 9 -22.363 84.6419 1
16 -3 -9 37.778 69.9053 2
-16 3 9 43.1387 73.3673 1
-15 -3 9 419.101 77.311 1
15 -3 -9 331.64 66.9186 2
15 3 -9 201.385 94.7152 1
-15 3 9 445.737 74.8742 1
14 -3 -9 66.8867 45.5313 2
-14 -3 9 31.9799 53.8942 1
14 3 -9 -47.923 69.8569 1
-14 3 9 41.8983 55.1444 1
-13 -3 9 1155.76 102.836 1
13 -3 -9 1162.7 76.8795 2
-13 3 9 1122.24 100.741 1
13 3 -9 925.061 126.572 1
-12 -3 9 72.2408 42.6396 1
12 -3 -9 -19.556 28.8816 2
-12 3 9 -14.524 42.0007 1
12 3 -9 7.84164 57.8988 1
-11 -3 9 291.11 29.1443 3
-11 -3 9 221.29 51.9846 1
11 -3 -9 248.258 31.1235 2
-11 3 9 257.148 49.9556 1
11 3 -9 202.125 57.7996 1
10 -3 -9 -23.621 17.3209 2
-10 -3 9 2.18706 31.5463 1
-10 -3 9 5.39085 13.2818 3
-10 3 9 16.6131 34.3725 1
10 3 -9 1.97996 41.7451 1
9 -3 -9 721.046 38.3209 2
-9 -3 9 723.866 37.6714 3
-9 -3 9 745.314 64.6639 1
-9 3 9 735.917 73.0661 1
9 3 -9 704.46 76.4387 1
-8 -3 9 -3.0232 24.4541 1
-8 -3 9 11.8542 11.9428 3
8 -3 -9 2.61848 11.6976 2
-8 3 9 27.441 33.0352 1
8 3 -9 28.8021 32.1961 1
8 3 -9 -25.546 18.449 2
-7 -3 9 2270.54 103.012 1
-7 -3 9 2227.79 69.8194 3
-7 3 9 2251.83 102.303 1
7 3 -9 2197.97 107.96 1
7 3 -9 2106.09 93.5878 2
-6 -3 9 62.6928 12.5114 3
-6 -3 9 47.4536 22.9356 1
6 3 -9 19.7579 26.1417 1
-6 3 9 6.78365 23.4864 1
6 3 -9 45.3771 23.0406 2
-5 -3 9 51.6401 22.26 1
-5 -3 9 77.5688 12.8174 3
5 3 -9 106.982 24.9886 2
5 3 -9 88.5804 31.2794 1
-5 3 9 82.7974 26.4562 1
-4 -3 9 120.933 14.3425 3
-4 -3 9 116.829 27.1663 1
-4 3 9 136.891 22.5002 3
4 3 -9 123.294 30.1453 1
4 3 -9 140.521 26.3626 2
-3 -3 9 827.531 33.436 3
-3 -3 9 803.857 53.6858 1
3 3 -9 953.34 57.1425 2
3 3 -9 824.218 56.7347 1
-3 3 9 920.765 38.9271 3
-2 -3 9 15.8047 17.3244 1
-2 -3 9 6.48487 9.97199 3
-2 3 9 22.3976 13.6387 3
2 3 -9 25.1003 19.1851 1
2 3 -9 -19.11 15.9211 2
-1 -3 9 2698.09 99.8815 1
-1 -3 9 2726.45 79.5582 3
-1 -3 9 2688.34 100.104 2
1 3 -9 2831.8 75.6228 3
1 3 -9 2730.58 106.244 2
-1 3 9 2708.45 74.7696 3
0 -3 9 -6.7302 13.2769 2
0 -3 9 16.9556 10.0015 3
0 -3 9 37.7391 17.4239 1
0 3 -9 4.8077 11.2709 3
0 3 -9 11.5616 20.5345 2
0 3 9 -13.453 10.2526 3
1 -3 9 228.938 29.2605 1
-1 -3 -9 216.623 17.9278 3
1 -3 9 263.054 35.797 2
1 3 9 203.813 21.0077 2
-1 3 -9 237.297 21.6624 3
-1 3 -9 293.925 39.7443 2
2 -3 9 27.2127 18.3383 2
2 -3 9 -7.3451 15.3534 1
-2 -3 -9 4.19786 8.89241 3
-2 3 -9 15.7542 14.8572 3
2 3 9 8.92321 13.4216 2
-2 3 -9 4.0102 21.792 2
-3 -3 -9 1072.18 37.6971 3
3 -3 9 1179.68 66.7097 2
3 -3 9 1048.14 51.7311 1
-3 3 -9 1030 44.0736 3
3 3 9 1136.81 53.6294 2
-3 3 -9 1116.83 66.7308 2
-4 -3 -9 155.326 15.4955 3
4 -3 9 194.825 24.5325 1
4 -3 9 192.06 33.9697 2
-4 3 -9 182.097 34.2376 2
4 3 9 170.248 25.3874 2
5 -3 9 3173.94 100.543 1
-5 -3 -9 3123.27 86.9295 3
5 3 9 3123.27 111.172 2
6 -3 9 -12.302 16.809 1
-6 -3 -9 -0.9631 10.1396 3
6 -3 9 8.04007 26.2938 2
6 3 9 46.2984 25.2129 2
-6 3 -9 20.4196 25.9886 2
7 -3 9 560.895 39.5308 1
-7 -3 -9 514.79 25.3906 3
7 -3 9 431.53 57.2963 2
-7 3 -9 521.134 62.0354 2
7 3 9 519.819 55.9988 2
-8 -3 -9 47.7842 11.8944 3
8 -3 9 13.579 15.8021 1
8 -3 9 -59.282 31.6491 2
8 3 9 -2.7257 29.8092 2
8 3 9 1.5589 23.8369 1
-8 3 -9 15.9427 33.8984 2
9 -3 9 425.805 36.9759 1
9 -3 9 476.156 67.9426 2
-9 -3 -9 427.101 31.2267 3
-9 3 -9 499.72 60.1853 2
9 3 9 433.575 51.8257 1
9 3 9 392.173 54.5806 2
10 -3 9 -5.2458 24.184 1
10 -3 9 -74.774 45.0999 2
-10 -3 -9 7.85395 15.6247 3
10 3 9 1.38828 43.9268 2
-10 3 -9 8.03371 41.0687 2
10 3 9 -22.628 34.5408 1
11 -3 9 1845.03 126.76 2
11 -3 9 1759.58 76.9334 1
-11 -3 -9 1724.44 64.9088 3
11 3 9 1703.63 116.308 2
11 3 9 1597.24 107.108 1
12 -3 9 27.2784 60.9129 2
-12 -3 -9 16.4487 19.2423 3
12 -3 9 38.4487 39.9636 1
12 3 9 123.714 55.8133 1
12 3 9 33.4765 59.7976 2
13 -3 9 266.731 51.7134 1
-13 -3 -9 419.702 42.9189 3
13 3 9 296.161 76.9309 1
13 3 9 393.316 86.4277 2
-14 -3 -9 -47.505 27.4852 3
-15 -3 -9 59.4354 34.0645 3
-16 -4 9 596.046 57.6359 3
-16 4 9 609.819 95.5367 1
15 -4 -9 -6.0226 59.9026 2
-15 -4 9 99.278 30.8369 3
-15 4 9 37.3282 74.9349 1
14 -4 -9 148.262 47.1411 2
-14 -4 9 99.3596 27.5145 3
-14 -4 9 -83.786 59.8926 1
-14 4 9 101.585 62.7642 1
14 4 -9 145.936 99.1103 1
-13 -4 9 -20.797 46.3957 1
-13 -4 9 -4.0905 20.6732 3
13 -4 -9 8.32602 37.7233 2
-13 4 9 4.39713 53.9908 1
13 4 -9 15.339 76.0206 1
12 -4 -9 438.4 55.3728 2
-12 -4 9 308.111 52.4042 1
-12 -4 9 363.653 38.6284 3
12 4 -9 406.097 77.1197 1
-12 4 9 400.769 61.7027 1
-11 -4 9 236.945 53.0969 1
-11 -4 9 204.108 27.833 3
11 -4 -9 255.565 30.4334 2
11 4 -9 293.325 62.778 1
-11 4 9 206.174 54.2211 1
10 -4 -9 1132.1 49.6038 2
-10 -4 9 1124.43 86.1259 1
-10 -4 9 1158.88 52.9108 3
10 4 -9 1208.83 106.446 1
-10 4 9 1101.37 91.8831 1
-9 -4 9 226.833 47.0518 1
-9 -4 9 219.796 26.3123 3
9 4 -9 160.422 38.1952 2
9 4 -9 175.21 46.4978 1
-9 4 9 215.438 45.8379 1
-8 -4 9 226.066 26.1771 3
-8 -4 9 288.116 45.3167 1
8 4 -9 232.959 43.0588 2
-8 4 9 256.191 44.8522 1
8 4 -9 257.809 46.6072 1
-7 -4 9 -4.5431 12.6168 3
-7 -4 9 23.7096 24.0526 1
7 4 -9 10.1181 23.7468 2
-7 4 9 -9.4978 32.5638 1
7 4 -9 -28.923 34.5264 1
-6 -4 9 247.339 35.7155 1
-6 -4 9 175.019 21.0069 3
-6 4 9 180.02 38.1211 1
6 4 -9 251.298 42.5054 2
6 4 -9 264.248 41.6994 1
-5 -4 9 679.278 53.1707 1
5 4 -9 566.707 55.565 2
-5 4 9 644.454 61.9088 1
5 4 -9 477.896 57.8353 1
-4 -4 9 3352.46 122.186 1
-4 -4 9 3328.44 97.884 3
4 4 -9 3228.41 127.077 1
-3 -4 9 128.847 27.6958 1
-3 -4 9 128.002 17.1423 3
3 4 -9 145.242 32.0163 2
3 4 -9 124.942 31.3991 1
-2 -4 9 588.544 45.6461 1
-2 -4 9 543.707 30.7852 3
2 4 -9 606.415 52.4912 1
2 4 -9 549.352 54.0622 2
-1 -4 9 5.74261 12.3002 3
-1 -4 9 22.8879 18.3791 1
1 4 -9 6.00788 20.7653 2
0 -4 9 470.325 38.4547 1
0 -4 9 467.494 46.2602 2
0 -4 9 444.15 29.5374 3
0 4 -9 408.051 50.2581 2
1 -4 9 210.903 36.2083 2
1 -4 9 221.579 28.0698 1
-1 -4 -9 210.424 22.1048 3
-1 4 -9 163.949 32.1968 2
-2 -4 -9 1445.01 50.755 3
2 -4 9 1425.9 59.2241 1
2 4 9 1439.24 55.7027 2
3 -4 9 559.464 53.0183 2
3 -4 9 566.972 37.2349 1
-3 -4 -9 624.313 30.7854 3
3 4 9 555.465 40.6629 2
-3 4 -9 697.646 61.7882 2
-4 -4 -9 1146.2 43.3375 3
4 -4 9 1152.64 74.2806 2
4 -4 9 1133.19 47.6122 1
-4 4 -9 1207.25 79.1468 2
4 4 9 1148.3 59.3971 2
5 -4 9 3.7971 15.2313 1
5 -4 9 25.2827 31.647 2
-5 -4 -9 11.2207 11.5162 3
5 4 9 -5.2318 22.4384 2
-5 4 -9 -5.8302 29.0882 2
-6 -4 -9 436.176 28.2692 3
6 -4 9 470.505 60.5898 2
6 4 9 358.879 49.684 2
-6 4 -9 406.729 53.7163 2
7 -4 9 280.7 54.3631 2
-7 -4 -9 240.528 27.5623 3
-7 4 -9 204.48 42.7046 2
7 4 9 148.302 36.4236 2
-8 -4 -9 827.806 43.797 3
8 -4 9 838.118 84.8343 2
-8 4 -9 856.175 85.4068 2
8 4 9 800.963 73.3613 2
8 4 9 850.864 74.3555 1
-9 -4 -9 306.973 31.3541 3
9 -4 9 294.934 65.1082 2
-9 4 -9 229.536 59.352 2
9 4 9 274.988 54.6938 2
9 4 9 279.844 47.9282 1
-10 -4 -9 423.577 38.1985 3
10 -4 9 382.946 78.4851 2
10 4 9 397.575 65.7085 2
10 4 9 358.741 56.2178 1
-10 4 -9 511.047 76.747 2
-11 -4 -9 11.9788 20.8581 3
11 -4 9 3.23305 71.5702 2
11 4 9 90.2303 51.725 1
11 4 9 167.888 60.7904 2
-11 4 -9 -25.475 62.0943 2
-12 -4 -9 47.8749 26.2181 3
12 -4 9 102.388 126.456 2
12 4 9 133.723 72.3815 2
-13 -4 -9 9.74979 29.0543 3
13 4 9 95.887 87.4074 2
-14 -4 -9 932.747 64.7371 3
-15 -5 9 117.651 36.7938 3
-14 -5 9 395.073 43.2617 3
-14 5 9 455.489 81.2727 1
-13 -5 9 346.182 40.496 3
13 -5 -9 318.321 54.1496 2
-13 5 9 447.394 76.1622 1
-12 -5 9 186.886 62.4758 1
-12 5 9 181.654 100.272 1
12 5 -9 182.345 64.5091 2
12 5 -9 489.982 102.731 1
-11 -5 9 106.565 53.1981 1
-11 -5 9 40.2343 22.8494 3
11 5 -9 78.5223 74.777 1
11 5 -9 3.37881 51.1488 2
-11 5 9 -32.018 53.6627 1
-10 -5 9 42.1456 41.8473 1
10 5 -9 79.312 61.9617 1
10 5 -9 5.8937 47.1127 2
-10 5 9 16.3377 49.8748 1
-9 -5 9 189.44 26.437 3
-9 -5 9 129.675 43.5586 1
-9 5 9 109.893 48.7165 1
9 5 -9 127.102 46.7286 2
9 5 -9 221.078 57.9079 1
-8 -5 9 490.624 40.4226 3
-8 -5 9 672.643 69.874 1
8 5 -9 711.569 89.736 1
-8 5 9 618.109 81.3345 1
8 5 -9 572.095 73.2851 2
-7 -5 9 790.366 68.4973 1
-7 -5 9 836.094 46.6086 3
7 5 -9 767.105 72.3512 2
7 5 -9 774.55 85.6991 1
-7 5 9 814.217 81.8662 1
-6 -5 9 968.036 49.4928 3
-6 -5 9 960.405 70.7977 1
-6 5 9 1086.77 84.1089 1
6 5 -9 952.407 87.0191 1
6 5 -9 1037.91 75.4632 2
-5 -5 9 26.9086 26.9767 1
-5 -5 9 46.2583 20.5407 3
5 5 -9 76.0889 34.1892 1
5 5 -9 -3.3118 29.7408 2
-4 -5 9 12.4155 17.4254 3
-4 -5 9 44.5309 24.9561 1
4 5 -9 20.9698 30.1271 1
4 5 -9 37.8958 30.7795 2
-3 -5 9 238.244 28.3518 3
-3 -5 9 223.817 32.8622 1
3 5 -9 261.135 46.4405 2
3 5 -9 231.647 41.7234 1
-2 -5 9 1178.24 55.2541 3
-2 -5 9 1111.12 61.9891 1
2 5 -9 1258.79 78.3858 2
2 5 -9 1166.55 73.9752 1
-1 -5 9 973.762 54.0501 1
-1 -5 9 859.367 48.9648 3
1 5 -9 974.986 63.2935 1
1 5 -9 827.722 68.7646 2
0 -5 9 1074.03 54.0913 3
0 -5 9 1032 53.3345 1
0 5 -9 1072.41 77.7127 2
1 -5 9 290.02 32.5604 1
-1 -5 -9 319.407 29.7322 3
1 -5 9 351.921 48.8635 2
-1 5 -9 209.771 45.5883 2
2 -5 9 -62.634 25.3507 2
2 -5 9 -1.893 16.1572 1
-2 5 -9 7.39119 29.7195 2
2 5 9 30.0626 17.6045 2
3 -5 9 362.347 26.6958 1
3 -5 9 352.279 47.0755 2
-3 -5 -9 329.522 37.3831 3
3 5 9 288.392 36.7527 2
-3 5 -9 374.762 56.4051 2
4 -5 9 814.539 72.1672 2
-4 -5 -9 789.601 45.0549 3
4 5 9 787.058 54.7293 2
-4 5 -9 840.898 76.9019 2
5 -5 9 1015.64 84.0651 2
-5 -5 -9 1030.96 49.3511 3
-5 5 -9 799.031 83.1883 2
5 5 9 863.155 63.641 2
6 -5 9 561.407 72.1194 2
-6 -5 -9 545.135 39.8802 3
6 5 9 517.84 62.437 1
-6 5 -9 462.883 63.726 2
6 5 9 464.077 52.8575 2
7 -5 9 142.505 54.5142 2
-7 -5 -9 148.88 26.1184 3
7 5 9 193.595 46.5152 1
7 5 9 198.772 44.941 2
-7 5 -9 169.808 61.5258 2
-8 -5 -9 -3.9414 22.7355 3
8 -5 9 -18.157 50.6325 2
8 5 9 -5.8706 43.6702 2
-8 5 -9 -61.021 53.396 2
8 5 9 -56.768 41.1698 1
9 -5 9 156.895 63.1088 2
-9 -5 -9 84.9699 26.9126 3
-9 5 -9 156.954 69.3821 2
9 5 9 70.939 48.8441 1
9 5 9 175.324 60.0031 2
-10 -5 -9 545.841 48.3557 3
10 -5 9 584.272 92.0883 2
-10 5 -9 575.935 90.5526 2
10 5 9 517.558 79.0434 2
10 5 9 315.182 68.5451 1
-11 -5 -9 463.189 51.091 3
11 5 9 270.516 78.7377 2
-12 -5 -9 397.313 46.3001 3
12 5 9 436.854 95.0547 2
-13 -6 9 7.36937 30.1289 3
-12 -6 9 12.4073 33.8208 3
-12 6 9 -73.807 80.9164 1
-11 -6 9 710.167 58.5144 3
-11 -6 9 623.989 80.7157 1
11 6 -9 455.441 106.103 1
-11 6 9 715.986 87.7503 1
-10 -6 9 8.10203 29.3848 3
-10 -6 9 54.9668 54.6138 1
10 6 -9 -3.2721 82.5515 1
10 6 -9 12.3437 59.7621 2
-10 6 9 58.455 61.2921 1
-9 -6 9 573.812 74.5891 1
-9 -6 9 605.668 51.7724 3
9 6 -9 528.258 70.4299 2
-9 6 9 614.87 77.1307 1
9 6 -9 660.597 99.3464 1
-8 -6 9 -44.597 46.5342 1
-8 -6 9 41.4965 24.3572 3
-8 6 9 36.6725 55.6903 1
8 6 -9 142.483 54.3893 2
8 6 -9 104.543 67.8093 1
-7 -6 9 33.6895 22.8089 3
-7 -6 9 54.9525 43.557 1
7 6 -9 71.995 48.4317 2
7 6 -9 9.87823 54.3365 1
-7 6 9 107.223 54.0126 1
-6 -6 9 27.7164 22.56 3
-6 -6 9 -41.549 32.8054 1
-6 6 9 35.0031 49.4496 1
6 6 -9 22.7913 46.151 1
6 6 -9 130.447 49.5432 2
-5 -6 9 860.861 52.6696 3
-5 -6 9 910.921 69.5517 1
5 6 -9 939.404 89.7434 2
5 6 -9 848.79 88.2852 1
-4 -6 9 47.9064 24.3528 3
4 6 -9 91.5331 43.2193 2
-3 -6 9 774.329 50.6051 3
-3 -6 9 711.106 56.2147 1
3 6 -9 798.96 79.7911 1
3 6 -9 715.457 81.0899 2
-2 -6 9 30.8731 21.5671 3
-2 -6 9 28.492 23.8315 1
2 6 -9 24.4802 36.644 1
2 6 -9 -44.229 36.1418 2
-1 -6 9 16.2794 23.209 1
-1 -6 9 -37.685 21.1529 3
1 6 -9 -44.888 32.9301 2
1 6 -9 23.8814 35.244 1
0 -6 9 23.8271 24.4182 3
0 -6 9 -2.3168 21.2229 1
0 6 -9 72.2381 42.3424 2
-1 -6 -9 1144.69 58.4067 3
1 -6 9 1073.54 49.0296 1
-1 6 -9 1095.61 93.5335 2
-2 -6 -9 9.51842 22.1868 3
2 -6 9 -37.764 34.1009 2
-2 6 -9 -13.532 43.6885 2
2 6 9 32.4396 21.541 2
2 6 9 -7.5938 19.4177 2
3 -6 9 1148.82 90.8917 2
-3 -6 -9 1250.33 61.9003 3
-3 6 -9 1162.25 102.456 2
3 6 9 1069.52 55.8152 2
3 6 9 1130.95 60.3247 2
4 -6 9 -22.004 39.0558 2
-4 -6 -9 -8.8099 23.0554 3
4 6 9 4.16051 30.0107 2
-4 6 -9 29.8222 48.561 2
5 -6 9 13.2463 50.349 2
-5 -6 -9 8.09713 24.1983 3
5 6 9 45.8102 37.8441 1
5 6 9 -7.7772 34.9829 2
-5 6 -9 29.479 52.5951 2
-6 -6 -9 24.2812 25.974 3
6 -6 9 27.5479 50.962 2
6 6 9 66.9102 42.1166 2
-6 6 -9 -3.3363 56.7392 2
6 6 9 17.4535 45.8709 1
7 -6 9 847.784 114.098 2
-7 -6 -9 1037.04 60.2211 3
7 6 9 978.764 91.7874 2
7 6 9 824.365 100.176 1
-7 6 -9 1049.62 117.785 2
8 -6 9 105.989 67.0981 2
-8 -6 -9 9.80618 28.5916 3
8 6 9 -18.287 53.6261 1
-8 6 -9 -104.82 71.0384 2
8 6 9 3.4928 56.7916 2
-9 -6 -9 963.486 64.1683 3
9 6 9 843.523 115.634 2
-10 -6 -9 27.3565 34.3869 3
10 6 9 8.95199 77.1057 2
-11 -6 -9 54.2421 37.4351 3
11 6 9 -50.89 94.0876 2
-11 -7 9 40.473 34.189 3
-10 -7 9 11.3154 36.0381 3
9 7 -9 415.071 113.34 1
-9 7 9 248.153 118.984 1
-8 -7 9 807.187 102.752 1
-8 -7 9 897.584 66.4265 3
8 7 -9 902.039 119.788 1
-8 7 9 581.263 142.841 1
-7 -7 9 140.187 51.503 1
-7 -7 9 138.158 37.8208 3
7 7 -9 164.948 80.959 1
7 7 -9 137.012 78.7294 2
-7 7 9 131.104 71.5382 1
-6 -7 9 909.264 64.8232 3
-6 -7 9 839.121 85.4455 1
6 7 -9 961.513 129.723 1
-6 7 9 842.595 113.836 1
6 7 -9 973.18 107.307 2
-5 -7 9 50.4504 42.5824 1
-5 -7 9 88.0753 35.5988 3
5 7 -9 98.649 66.621 2
5 7 -9 183.272 68.1118 1
-4 -7 9 3.87919 36.311 1
-4 -7 9 59.7709 28.1914 3
4 7 -9 52.3688 57.3607 2
4 7 -9 -22.509 57.2229 1
-3 -7 9 62.0413 34.6762 3
3 7 -9 22.5235 56.2357 2
-2 -7 9 1144.91 67.9734 3
-2 -7 9 1103.83 68.7476 1
2 7 -9 1112.59 99.2529 1
2 7 -9 1038.08 116.12 2
-1 -7 9 79.17 30.8905 3
1 7 -9 71.8322 55.1554 2
0 7 -9 919.175 109.534 2
-1 7 -9 -15.64 53.6436 2
-2 -7 -9 -12.324 32.2096 3
-2 7 -9 -60.913 62.9137 2
2 7 9 37.1803 44.79 1
-3 -7 -9 17.9369 30.6813 3
3 7 9 59.6845 32.6223 2
-3 7 -9 23.5429 67.2802 2
3 7 9 -48.973 31.832 2
3 7 9 77.3479 49.499 1
4 -7 9 847.186 104.126 2
-4 -7 -9 748.61 62.9908 3
4 7 9 685.255 68.9812 2
-4 7 -9 777.041 94.771 2
4 7 9 748.146 100.624 1
4 7 9 843.171 73.771 2
5 -7 9 282.76 68.9714 2
-5 -7 -9 190.476 37.6988 3
-5 7 -9 238.635 89.2289 2
5 7 9 174.632 61.6423 1
5 7 9 152.208 44.6399 2
5 7 9 202.042 51.3153 2
6 -7 9 728.723 87.0936 2
-6 -7 -9 952.864 66.5619 3
6 7 9 847.725 99.2227 2
6 7 9 1052.34 150.888 1
-6 7 -9 682.978 106.45 2
-7 -7 -9 16.4247 36.9753 3
7 7 9 103.798 67.6535 2
-8 -7 -9 24.2755 38.4357 3
8 7 9 -30.212 75.3214 2
-9 -7 -9 -16.373 41.3725 3
-7 -8 9 30.986 42.4416 3
7 8 -9 -66.409 111.213 1
-6 -8 9 224.883 46.3462 3
6 8 -9 267.785 110.497 1
-5 -8 9 319.792 50.9455 3
5 8 -9 293.853 100.693 1
-5 8 9 371.904 94.4124 1
-4 -8 9 662.185 67.9585 3
4 8 -9 588.25 98.4436 1
-3 -8 9 302.233 47.8466 3
3 8 -9 248.479 84.7907 1
-2 -8 9 83.9843 42.6871 3
2 8 -9 187.169 76.023 1
-2 8 9 41.0332 59.7859 1
-1 8 9 -25.258 55.654 1
0 8 9 159.609 64.8346 1
1 8 9 338.33 72.0923 1
2 8 9 581.738 89.0803 1
-3 -8 -9 456.397 56.962 3
3 8 9 186.528 87.0823 1
-4 -8 -9 198.306 51.1719 3
-5 -8 -9 -67.352 44.8932 3
-17 0 10 -73.003 99.8922 1
-16 0 10 947.443 129.726 1
16 0 -10 1017.77 129.593 1
-15 0 10 92.1819 64.7312 1
15 0 -10 -2.78 76.1772 1
14 0 -10 -106.28 59.5391 1
-14 0 10 -1.9034 50.0049 1
13 0 -10 13.488 53.064 1
-13 0 10 3.82368 46.5723 1
12 0 -10 836.304 92.5701 1
-12 0 10 858.063 87.9058 1
-11 0 10 59.0436 37.4389 1
11 0 -10 -55.439 39.4891 1
10 0 -10 1707.23 100.406 1
-10 0 10 1745.94 96.3191 1
9 0 -10 15.1502 32.7375 1
-9 0 10 18.1683 31.0637 1
-8 0 10 100.779 31.1708 1
8 0 -10 59.3057 29.8466 1
7 0 -10 -0.4777 14.2536 2
-7 0 10 -10.254 23.0186 1
6 0 -10 515.494 35.4119 2
-6 0 10 511.379 50.6328 1
-5 0 10 -9.3798 19.4183 1
5 0 -10 -3.9293 13.0356 2
-4 0 10 2450.75 100.734 1
4 0 -10 2385.15 83.1498 2
-3 0 10 8.83847 16.2642 1
3 0 -10 3.71232 12.7201 2
-2 0 10 89.9125 20.6207 1
2 0 -10 63.469 17.2142 2
-1 0 10 17.8779 11.2867 2
1 0 -10 -4.2449 12.8707 2
0 0 -10 1313.46 57.5618 2
0 0 10 1205.05 53.8354 2
1 0 10 2.9158 12.9512 2
-1 0 -10 -15.216 13.5393 2
-2 0 -10 2661.73 95.1214 2
2 0 10 2580.03 93.779 2
-3 0 -10 27.3577 17.7972 2
3 0 10 -3.6304 16.4004 2
-4 0 -10 10.5598 19.9772 2
4 0 10 -17.41 15.7074 2
5 0 10 42.2425 19.7919 2
-5 0 -10 1.97957 19.1543 2
6 0 10 726.846 60.3303 2
-6 0 -10 790.376 55.4917 2
7 0 10 56.2338 27.7202 2
8 0 10 2752.05 125.379 2
9 0 10 -30.936 37.6221 2
10 0 10 188.348 54.1949 2
10 0 10 151.243 35.468 1
11 0 10 46.8126 48.2707 2
11 0 10 18.8582 34.9699 1
12 0 10 560.82 86.1708 2
12 0 10 592.412 69.6208 1
13 0 10 53.8874 74.1896 2
13 0 10 -16.168 50.5758 1
14 0 10 930.447 124.36 1
15 0 10 118.405 96.1491 1
18 -1 -10 68.02 96.1154 2
17 -1 -10 24.3328 110.846 1
17 -1 -10 -4.1189 80.1887 2
-17 1 10 -18.781 82.658 1
16 -1 -10 -22.362 61.4402 2
16 -1 -10 306.281 102.923 1
-16 -1 10 -76.069 66.1848 1
-16 1 10 121.741 73.5457 1
16 1 -10 125.43 104.565 1
15 -1 -10 477.16 92.8542 1
-15 -1 10 361.858 75.9703 1
15 1 -10 430.825 94.8782 1
-15 1 10 395.545 75.1675 1
14 -1 -10 394.086 80.519 1
-14 -1 10 306.378 69.3614 1
14 1 -10 403.553 80.3184 1
-14 1 10 320.495 66.6704 1
-13 -1 10 578.296 74.8173 1
13 1 -10 470.815 72.0822 1
-13 1 10 784.067 95.5426 1
12 -1 -10 118.1 48.551 1
-12 -1 10 115.632 44.0207 1
12 1 -10 111.125 49.4701 1
-12 1 10 164.557 44.0406 1
-11 -1 10 4.6714 35.342 1
-11 1 10 -37.962 34.1864 1
11 1 -10 35.1977 41.174 1
-10 -1 10 84.7181 38.1254 1
10 1 -10 59.739 35.928 1
-10 1 10 61.7338 43.2965 1
-9 -1 10 1778.26 101.414 1
9 1 -10 1699.32 99.4837 1
-9 1 10 1772.36 96.8591 1
-8 -1 10 436.548 54.1367 1
8 1 -10 489.235 58.4817 1
-8 1 10 489.78 59.24 1
-7 -1 10 1565.95 84.65 1
7 1 -10 1463.48 67.6231 2
-7 1 10 1586.12 85.8084 1
7 1 -10 1396.05 82.0501 1
6 -1 -10 260.653 26.6187 2
-6 -1 10 254.584 35.871 1
6 1 -10 284.714 32.2456 2
6 1 -10 250.747 34.744 1
-6 1 10 230.845 39.341 1
-5 -1 10 -6.7677 20.0525 1
5 -1 -10 39.7081 13.8241 2
-5 1 10 39.0667 25.5649 1
5 1 -10 43.8759 18.2318 2
4 -1 -10 6.22705 11.6642 2
-4 -1 10 -14.233 16.9562 1
-4 -1 10 15.845 6.01266 3
-4 1 10 30.4757 19.9347 1
4 1 -10 7.41477 15.165 2
3 -1 -10 1790.6 63.876 2
-3 -1 10 1918.87 85.3008 1
3 1 -10 1929.3 76.162 2
-3 1 10 1813.96 83.4864 1
2 -1 -10 1043.01 45.1757 2
-2 -1 10 1060.53 59.6526 1
2 1 -10 1089.25 55.5182 2
1 -1 -10 4156.1 119.47 2
-1 -1 10 4242.35 129.013 2
-1 -1 10 4075.4 138.101 1
-1 1 10 4121.37 117.432 2
1 1 -10 4187.02 133.541 2
0 -1 10 618.717 39.6339 2
0 -1 -10 573.492 34.4087 2
0 -1 10 591.711 44.7706 1
0 1 10 550.731 32.7805 2
0 1 -10 555.072 40.7589 2
1 -1 10 152.655 25.3727 2
-1 -1 -10 222.194 25.8443 2
1 1 10 182.648 23.4366 2
-1 1 -10 156.324 26.4162 2
-2 -1 -10 77.0153 17.8715 2
2 -1 10 111.558 24.1887 2
2 1 10 77.318 18.1349 2
-2 1 -10 88.9326 24.2343 2
-3 -1 -10 1264.59 58.7464 2
3 -1 10 1309.94 66.6599 2
-3 1 -10 1210.52 66.4336 2
3 1 10 1362.06 60.9865 2
4 -1 10 1127.34 65.3739 2
4 1 10 1040.42 58.3023 2
-4 1 -10 1046.58 62.4656 2
5 -1 10 1856.1 88.0767 2
5 1 10 1862.8 84.7921 2
-5 1 -10 1771.71 84.0336 2
6 -1 10 289.565 46.0409 2
-6 1 -10 325.037 45.9993 2
6 1 10 232.484 36.7492 2
7 -1 10 200.183 34.4068 2
7 1 10 323.597 45.1532 2
-7 1 -10 149.889 37.1759 2
8 -1 10 19.2436 33.9705 2
-8 1 -10 -0.7613 28.8687 2
8 1 10 17.4509 31.1639 2
9 -1 10 639.621 76.3663 2
9 1 10 580.05 75.2059 2
10 -1 10 310.511 40.9038 1
10 -1 10 412.769 67.7886 2
10 1 10 248.063 58.1729 2
10 1 10 276.626 40.6059 1
11 -1 10 911.162 108.087 2
11 1 10 866.307 74.9871 1
11 1 10 834.147 104.461 2
12 -1 10 219.556 43.9539 1
12 -1 10 271.207 63.6494 2
12 1 10 212.285 69.4703 2
12 1 10 287.665 51.4707 1
13 -1 10 116.768 52.2338 1
13 -1 10 313.03 91.3053 2
13 1 10 60.4715 75.2575 2
13 1 10 93.5158 58.0767 1
14 -1 10 -9.3616 63.0836 1
14 1 10 -40.933 73.8367 1
15 -1 10 360.174 93.9681 1
15 1 10 135.927 111.443 1
17 -2 -10 373.018 93.5024 2
-17 2 10 138.956 91.3573 1
16 -2 -10 277.625 71.5488 2
-16 2 10 327.857 89.0781 1
15 -2 -10 65.363 55.0801 2
-15 -2 10 195.433 67.8255 1
-15 2 10 149.709 67.964 1
15 2 -10 213.1 86.2425 1
-14 -2 10 52.0781 53.2106 1
14 -2 -10 23.2853 42.3828 2
-14 2 10 -76.923 55.5487 1
14 2 -10 108.128 79.1698 1
13 -2 -10 220.167 40.1627 2
-13 -2 10 187.483 50.8064 1
13 2 -10 193.17 76.2405 1
-13 2 10 155.953 55.755 1
12 -2 -10 226.226 35.0056 2
-12 -2 10 85.5766 41.9832 1
-12 2 10 246.808 51.4498 1
12 2 -10 102.317 51.9479 1
-11 -2 10 749.032 79.5742 1
11 2 -10 863.152 93.2417 1
-11 2 10 708.388 84.3903 1
-10 -2 10 543.378 68.7344 1
10 2 -10 565.37 75.2554 1
-9 -2 10 488.883 59.4379 1
9 2 -10 385.897 61.1076 1
-9 2 10 422.519 56.4132 1
-8 2 10 229.696 41.5565 1
8 2 -10 194.456 32.2331 2
8 2 -10 86.8229 66.6619 1
7 -2 -10 125.892 18.7048 2
-7 -2 10 104.667 29.2886 1
-7 -2 10 127.863 14.5084 3
7 2 -10 167.754 41.3603 1
-7 2 10 86.8538 33.1086 1
7 2 -10 164.842 28.5492 2
6 -2 -10 554.744 28.2942 2
-6 -2 10 540.902 54.044 1
-6 -2 10 601.797 26.2096 3
6 2 -10 603.742 56.5457 1
6 2 -10 565.286 45.5165 2
-6 2 10 612.602 58.1786 1
5 -2 -10 1682.5 52.7685 2
-5 -2 10 1729.95 51.3051 3
-5 -2 10 1579.43 84.3267 1
5 2 -10 1589.65 82.6952 1
-5 2 10 1745.03 86.9726 1
5 2 -10 1679.06 75.2976 2
-4 -2 10 891.964 31.5055 3
-4 -2 10 840.082 57.1645 1
4 2 -10 878.016 54.3047 2
-4 2 10 862.239 36.8999 3
4 2 -10 893.691 60.1352 1
-4 2 10 889.666 61.2364 1
-3 -2 10 1646.04 49.6995 3
-3 -2 10 1723.29 80.2 1
3 2 -10 1569.21 75.4668 2
-3 2 10 1708.81 50.4036 3
2 -2 -10 12.2178 8.43952 2
-2 -2 10 -2.4896 7.88954 3
-2 -2 10 36.9703 18.7747 1
2 2 -10 15.7364 17.5963 2
-1 -2 10 183.54 16.0225 3
-1 -2 10 175.453 27.7295 1
1 -2 -10 161.253 16.8052 2
-1 -2 10 163.895 25.1858 2
-1 2 10 183.421 16.2721 2
1 2 -10 162.572 28.7115 2
0 -2 10 156.727 27.161 2
0 -2 10 110.301 22.7712 1
0 2 10 140.845 16.7101 2
0 2 -10 152.079 27.4046 2
0 2 -10 106.559 11.1948 3
1 -2 10 1953.64 82.9493 2
1 -2 10 2035.59 82.8336 1
1 2 10 2037.43 70.0943 2
-1 2 -10 1991.85 54.864 3
-1 2 -10 2011.05 86.711 2
2 -2 10 666.286 45.4007 1
2 -2 10 635.765 50.6427 2
-2 2 -10 646.442 26.4606 3
2 2 10 711.616 39.4746 2
-2 2 -10 677.581 51.5888 2
3 -2 10 914.012 50.3858 1
3 -2 10 813.396 57.5772 2
-3 2 -10 742.038 56.2785 2
3 2 10 820.849 47.9672 2
-3 2 -10 874.497 33.5785 3
4 -2 10 364.907 44.6585 2
-4 2 -10 260.422 27.787 3
-4 2 -10 326.148 44.8343 2
4 2 10 329.733 38.3687 2
5 -2 10 -37.996 21.9604 2
-5 -2 -10 0.35917 6.81725 3
-5 2 -10 51.1298 20.6895 3
-5 2 -10 15.8651 23.9302 2
5 2 10 11.5586 21.69 2
6 -2 10 196.679 38.0057 2
-6 -2 -10 282.934 16.4207 3
6 2 10 268.09 37.8802 2
-6 2 -10 232.224 39.3302 2
7 -2 10 1448.58 87.975 2
-7 -2 -10 1300.47 42.9051 3
7 2 10 1348.59 79.6221 2
-7 2 -10 1362.18 83.7711 2
8 -2 10 606.854 73.2486 2
-8 -2 -10 625.21 27.1281 3
8 2 10 712.976 78.1564 2
-8 2 -10 705.219 68.6499 2
9 -2 10 784.458 80.1675 2
9 -2 10 534.548 47.802 1
9 2 10 586.768 76.9521 2
-9 2 -10 697.746 74.649 2
9 2 10 545.959 58.18 1
10 -2 10 106.981 29.4256 1
10 -2 10 112.562 45.6206 2
10 2 10 166.285 37.8317 1
10 2 10 84.1383 50.3291 2
11 -2 10 97.7167 31.4583 1
11 -2 10 91.6705 48.5211 2
11 2 10 40.6076 57.6192 2
11 2 10 169.237 49.7229 1
12 -2 10 102.475 42.9054 1
12 -2 10 162.575 64.4764 2
12 2 10 210.528 75.5562 2
12 2 10 -11.01 49.0667 1
13 -2 10 546.733 76.972 1
13 2 10 380.948 72.7032 1
13 2 10 463.608 94.3572 2
14 -2 10 384.764 92.2499 1
-17 3 10 -28.952 89.7059 1
16 -3 -10 186.934 76.1151 2
-16 3 10 90.3045 83.3996 1
15 -3 -10 104.857 57.4801 2
-15 3 10 -102.73 68.054 1
-14 -3 10 1054.17 113.864 1
14 -3 -10 956.066 83.9576 2
14 3 -10 926.918 122.573 1
-14 3 10 1006.13 119.215 1
-13 -3 10 -45.078 47.1276 1
13 -3 -10 93.9375 38.375 2
13 3 -10 47.7024 71.4023 1
-13 3 10 -58.744 51.8022 1
12 -3 -10 419.729 51.2722 2
-12 -3 10 284.971 55.3923 1
-12 -3 10 356.094 33.6059 3
-12 3 10 436.554 68.4077 1
12 3 -10 435.189 83.7961 1
-11 -3 10 34.3654 16.2051 3
11 -3 -10 11.4368 24.3045 2
-11 -3 10 -19.895 36.3 1
11 3 -10 -8.2983 48.5437 1
-11 3 10 41.249 46.1775 1
-10 -3 10 188.755 45.1332 1
-10 -3 10 166.199 21.7106 3
10 -3 -10 134.468 22.3297 2
10 3 -10 223.175 50.1119 1
-9 -3 10 -9.2003 11.6856 3
9 -3 -10 -33.417 14.1331 2
-9 -3 10 19.1969 33.7466 1
-9 3 10 19.0748 37.3107 1
9 3 -10 72.8911 36.4464 1
9 3 -10 -0.1041 28.149 2
-8 -3 10 2682.05 84.0167 3
-8 -3 10 2639.5 120.487 1
-8 3 10 2821.34 124.614 1
8 3 -10 2802.92 130.515 1
8 3 -10 2737.79 112.627 2
-7 -3 10 24.5033 11.2238 3
-7 3 10 28.7803 31.2945 1
7 3 -10 28.2885 26.9736 2
-6 -3 10 599.179 55.2818 1
-6 -3 10 541.659 28.4584 3
-6 3 10 590.497 62.6762 1
6 3 -10 540.887 52.1663 2
6 3 -10 547.57 60.2089 1
-5 -3 10 -10.541 8.96749 3
-5 -3 10 4.82862 21.6781 1
5 3 -10 -8.1588 25.4198 1
5 3 -10 24.3174 20.2801 2
-5 3 10 -17.45 25.4107 1
-4 -3 10 598.318 28.419 3
-4 -3 10 569.961 51.1933 1
-4 3 10 600.059 38.8951 3
4 3 -10 612.784 56.0221 1
4 3 -10 534.572 50.7087 2
-3 -3 10 80.0429 24.9866 1
-3 -3 10 101.548 13.6188 3
3 3 -10 97.6187 26.0037 1
3 3 -10 136.305 30.5289 2
-3 3 10 79.1544 18.5034 3
-2 -3 10 1893.97 85.1212 1
-2 -3 10 1900.91 59.5033 3
-2 3 10 1884.35 57.3819 3
2 3 -10 1831.97 85.1859 2
-1 -3 10 0.66432 10.5315 3
-1 -3 10 7.54939 18.8144 1
-1 -3 10 -2.0564 17.1538 2
-1 3 10 -6.2722 11.5791 3
1 3 -10 -31.666 20.5555 2
0 -3 10 891.242 36.9038 3
0 -3 10 821.526 52.1689 1
0 -3 10 965.071 57.2508 2
0 3 -10 819.512 33.4698 3
0 3 10 923.021 31.7758 3
0 3 -10 880.515 60.4978 2
-1 -3 -10 29.5428 10.1136 3
1 -3 10 20.5653 20.7158 2
1 -3 10 24.638 19.0924 1
-1 3 -10 35.7895 13.1623 3
-1 3 -10 22.4276 21.9118 2
1 3 10 46.4791 13.3343 2
2 -3 10 421.495 43.7539 2
-2 -3 -10 357.635 21.4522 3
2 -3 10 391.751 39.5906 1
2 3 10 391.568 31.9982 2
-2 3 -10 306.262 43.348 2
-2 3 -10 364.744 27.7412 3
3 -3 10 232.835 37.4483 2
-3 -3 -10 164.507 17.3118 3
3 -3 10 159.553 26.2702 1
3 3 10 193.237 27.5933 2
-3 3 -10 105.93 29.4787 2
-3 3 -10 118.943 20.6367 3
4 -3 10 2074.13 79.0947 1
-4 -3 -10 2047.47 60.581 3
4 -3 10 1963.91 100.506 2
-4 3 -10 2036.95 99.7619 2
4 3 10 2052.9 83.5712 2
5 -3 10 12.1211 25.8681 2
5 -3 10 23.2791 20.242 1
-5 -3 -10 -2.8254 9.56137 3
-5 3 -10 72.3755 34.2802 2
5 3 10 12.6829 24.2642 2
6 -3 10 1265.84 84.9423 2
-6 -3 -10 1201.47 42.4904 3
6 -3 10 1258.98 59.1975 1
-6 3 -10 1174.19 83.9394 2
6 3 10 1223.21 75.546 2
7 -3 10 -4.2795 22.4221 1
7 -3 10 12.1571 35.8371 2
-7 -3 -10 10.0182 11.1859 3
7 3 10 17.7111 32.4652 2
-7 3 -10 -66.988 32.0869 2
8 -3 10 5.37504 43.1853 2
8 -3 10 73.4499 19.8748 1
-8 -3 -10 44.5204 12.79 3
-8 3 -10 54.3392 40.1141 2
8 3 10 5.95141 34.6232 2
9 -3 10 -9.261 22.1735 1
9 -3 10 -43.817 44.8053 2
-9 -3 -10 -10.136 15.2755 3
9 3 10 62.9792 33.2329 1
9 3 10 33.6226 43.1914 2
-9 3 -10 7.96121 42.3196 2
10 -3 10 1392.75 124.218 2
10 -3 10 1373.07 64.8176 1
-10 -3 -10 1470.24 55.8579 3
-10 3 -10 1363.59 108.141 2
10 3 10 1451.68 112.302 2
10 3 10 1473.69 101.017 1
-11 -3 -10 6.08646 19.295 3
11 -3 10 58.1126 32.9299 1
11 -3 10 64.5294 59.4087 2
11 3 10 62.907 49.0447 1
11 3 10 -78.047 59.4817 2
12 -3 10 884.617 73.7157 1
12 -3 10 974.203 131.708 2
-12 -3 -10 729.634 47.3784 3
12 3 10 624.145 84.3092 1
12 3 10 774.399 93.989 2
13 3 10 149.212 88.5931 2
-14 -3 -10 70.6051 32.2135 3
-16 4 10 190.415 129.344 1
-15 -4 10 261.293 39.9528 3
-15 4 10 235.556 83.6282 1
14 -4 -10 24.4379 48.746 2
-14 -4 10 25.6583 22.4945 3
-14 4 10 1.84549 68.0381 1
-13 -4 10 198.372 33.8341 3
-13 -4 10 132.156 60.4345 1
13 -4 -10 170.293 40.0598 2
-13 4 10 165.091 66.6785 1
13 4 -10 -52.536 83.1761 1
-12 -4 10 149.986 55.8181 1
12 -4 -10 174.002 34.7992 2
-12 -4 10 93.288 22.8051 3
12 4 -10 18.1121 68.4577 1
-12 4 10 179.64 58.2109 1
-11 -4 10 723.25 45.7279 3
11 -4 -10 807.051 48.0959 2
-11 -4 10 833.313 89.8019 1
11 4 -10 1160 125.656 1
-11 4 10 959.726 100.777 1
11 4 -10 803.416 90.0351 2
-10 -4 10 180.45 47.6566 1
-10 -4 10 280.342 32.4545 3
-10 4 10 388.932 63.4247 1
10 4 -10 338.263 50.8053 2
10 4 -10 363.547 72.1928 1
-9 -4 10 434.221 33.9783 3
-9 -4 10 506.207 68.8236 1
9 4 -10 414.003 61.0023 1
9 4 -10 611.089 66.95 2
-9 4 10 558.096 67.2617 1
-8 -4 10 20.2199 32.8373 1
-8 -4 10 -6.4232 14.8134 3
-8 4 10 37.8283 40.4416 1
8 4 -10 2.65741 30.1833 2
8 4 -10 44.7544 41.1875 1
-7 -4 10 86.1151 17.2859 3
-7 -4 10 96.7807 32.2802 1
-7 4 10 128.455 42.5062 1
7 4 -10 51.8755 38.0665 1
7 4 -10 85.9281 28.5002 2
-6 -4 10 184.206 23.388 3
6 4 -10 173.211 57.2365 1
6 4 -10 241.22 43.357 2
-6 4 10 97.6931 40.5434 1
-5 -4 10 1446.82 62.1499 3
-5 -4 10 1460.32 80.875 1
5 4 -10 1462.33 85.1071 2
-5 4 10 1505.1 87.0216 1
5 4 -10 1546.77 89.3227 1
-4 -4 10 515.318 51.2091 1
-4 -4 10 487.644 30.749 3
4 4 -10 541.511 55.8587 2
4 4 -10 416.056 51.2798 1
-3 -4 10 1320.7 51.2264 3
-3 -4 10 1295.81 70.8304 1
3 4 -10 1251.7 77.1326 1
3 4 -10 1446.2 81.4352 2
-2 -4 10 20.6394 12.1198 3
-2 -4 10 13.3824 21.9567 1
2 4 -10 36.5308 23.3426 2
-1 -4 10 105.325 24.6905 1
-1 -4 10 94.7844 17.4356 3
1 4 -10 24.281 30.4918 2
0 -4 10 198.149 31.3843 2
0 -4 10 267.234 26.9566 3
0 -4 10 283.556 34.6455 1
0 4 -10 266.233 45.0319 2
-1 -4 -10 1534.67 54.0312 3
1 -4 10 1638.35 70.4667 1
-1 4 -10 1577.82 87.131 2
-2 -4 -10 246.484 23.8338 3
2 -4 10 252.273 30.3507 1
2 -4 10 261.587 40.2557 2
-2 4 -10 233.488 40.5424 2
2 4 10 324.018 29.9603 2
3 -4 10 1450.79 82.7642 2
-3 -4 -10 1361.43 48.0735 3
3 -4 10 1364.67 60.6797 1
-3 4 -10 1212.14 81.8147 2
3 4 10 1269.2 59.6731 2
4 -4 10 13.0561 29.6274 2
-4 -4 -10 88.9038 14.4679 3
4 -4 10 69.3932 20.3109 1
-4 4 -10 117.478 38.9663 2
4 4 10 71.927 26.8675 2
-5 -4 -10 113.452 16.171 3
5 -4 10 105.053 36.6162 2
5 -4 10 91.0919 19.6368 1
-5 4 -10 68.4408 36.5637 2
5 4 10 25.4236 28.3173 2
6 -4 10 39.4204 20.0244 1
6 -4 10 80.0721 38.1082 2
-6 -4 -10 57.0278 14.2041 3
-6 4 -10 82.6825 46.9205 2
6 4 10 115.096 34.4409 2
-7 -4 -10 987.695 46.8481 3
7 -4 10 1120.57 96.3116 2
-7 4 -10 1042.1 94.7877 2
7 4 10 1009.58 75.5459 2
-8 -4 -10 394.759 34.7216 3
8 -4 10 446.697 70.0323 2
8 4 10 402.446 51.4922 1
-8 4 -10 431.604 68.1565 2
8 4 10 469.649 61.5044 2
9 -4 10 435.798 72.9928 2
-9 -4 -10 493.188 38.7731 3
9 4 10 498.52 72.1933 2
-9 4 -10 449.925 76.8382 2
9 4 10 528.942 66.1368 1
-10 -4 -10 112.577 24.3728 3
10 -4 10 210.461 67.6525 2
10 4 10 62.476 58.3572 2
10 4 10 50.3708 48.673 1
-10 4 -10 147.333 63.2889 2
-11 -4 -10 43.9506 23.8607 3
11 -4 10 119.431 79.0046 2
11 4 10 104.211 68.2035 2
-11 4 -10 -85.754 69.8569 2
11 4 10 -36.675 59.8743 1
-12 -4 -10 45.7779 27.8314 3
12 4 10 99.6789 83.4146 2
-13 -4 -10 707.107 60.4235 3
-14 -5 10 319.929 44.4807 3
-14 5 10 574.964 96.8368 1
-13 -5 10 292.696 40.1861 3
-13 5 10 229.738 76.0171 1
-12 -5 10 126.234 28.206 3
-12 -5 10 144.858 64.9665 1
12 5 -10 109.677 85.6709 1
-12 5 10 201.848 67.9831 1
12 5 -10 62.3458 70.5455 2
-11 -5 10 4.41424 20.4597 3
-11 -5 10 -16.931 48.6319 1
11 5 -10 99.2929 59.4248 2
-11 5 10 4.18139 58.6645 1
11 5 -10 63.6246 78.3311 1
-10 -5 10 79.6055 22.9638 3
-10 -5 10 44.0013 50.8277 1
10 5 -10 77.5353 69.0488 1
10 5 -10 127.611 54.729 2
-10 5 10 156.734 59.8255 1
-9 -5 10 402.411 39.6843 3
-9 -5 10 489.461 65.0706 1
9 5 -10 380.812 70.2081 1
9 5 -10 419.412 64.0095 2
-9 5 10 328.773 66.2188 1
-8 -5 10 740.702 46.4473 3
-8 -5 10 853.193 81.1404 1
8 5 -10 728.29 82.3327 2
8 5 -10 779.856 98.1682 1
-7 -5 10 800.228 75.6776 1
-7 -5 10 773.844 45.342 3
7 5 -10 683.35 76.1 2
-7 5 10 776.097 128.577 1
7 5 -10 808.357 89.3221 1
-6 -5 10 190.863 25.3022 3
-6 -5 10 165.117 36.9496 1
6 5 -10 147.259 39.2476 2
6 5 -10 252.287 48.8493 1
-6 5 10 249.24 58.4266 1
-5 -5 10 40.0969 18.7439 3
-5 -5 10 30.582 29.2214 1
5 5 -10 4.65472 33.9223 2
5 5 -10 9.85022 39.7507 1
-4 -5 10 73.0695 20.4514 3
-4 -5 10 109.484 30.5598 1
4 5 -10 98.7956 39.9755 1
4 5 -10 159.893 33.2047 2
-3 -5 10 764.931 45.6506 3
-3 -5 10 794.038 59.1753 1
3 5 -10 944.836 74.6489 1
3 5 -10 709.241 69.9844 2
-2 -5 10 855.388 49.2708 3
-2 -5 10 790.841 57.4636 1
2 5 -10 777.899 66.9169 1
2 5 -10 957.034 76.0602 2
-1 -5 10 1014.01 53.7997 3
-1 -5 10 996.24 58.2836 1
1 5 -10 1026.54 79.0127 2
0 -5 10 487.635 41.9691 1
0 -5 10 403.903 41.439 3
0 5 -10 513.445 66.6129 2
1 -5 10 204.862 28.3231 1
-1 -5 -10 177.081 22.5136 3
1 -5 10 203.408 41.8417 2
-1 5 -10 288.736 48.2855 2
2 -5 10 39.4256 28.4116 2
2 -5 10 85.7354 20.7462 1
-2 -5 -10 87.3507 23.6992 3
2 5 10 82.9651 21.0201 2
-2 5 -10 131.175 40.9479 2
3 -5 10 722.973 39.2876 1
3 -5 10 687.478 73.1998 2
3 5 10 703.455 50.7888 2
-3 5 -10 710.276 77.3609 2
4 -5 10 1081.01 84.4284 2
-4 -5 -10 986.761 48.9339 3
-4 5 -10 988.607 91.178 2
4 5 10 831.889 59.2367 2
5 -5 10 725.311 83.1859 2
-5 -5 -10 772.714 46.2725 3
-5 5 -10 714.139 77.7998 2
5 5 10 712.975 60.423 2
-6 -5 -10 332.512 37.3248 3
6 -5 10 314.906 62.7248 2
-6 5 -10 207.783 56.2538 2
6 5 10 348.847 51.0143 2
-7 -5 -10 69.2677 22.7266 3
7 -5 10 91.586 55.2791 2
-7 5 -10 72.1181 53.5431 2
7 5 10 93.022 43.8487 2
7 5 10 129.365 46.5231 1
-8 -5 -10 73.9099 24.8399 3
8 -5 10 154.97 60.8625 2
8 5 10 21.6532 48.8228 2
8 5 10 49.5255 49.228 1
-8 5 -10 -52.6 61.694 2
-9 -5 -10 342.513 36.6088 3
9 -5 10 305.533 74.3958 2
-9 5 -10 236.259 79.148 2
9 5 10 332.657 68.0032 2
9 5 10 269.262 61.1419 1
-10 -5 -10 311.45 37.6466 3
10 5 10 384.668 80.5696 2
-11 -5 -10 559.472 55.988 3
11 5 10 440.029 89.615 2
-12 -5 -10 228.314 40.5041 3
12 5 10 324.913 106.06 2
-13 -6 10 -6.1518 29.7592 3
-12 -6 10 366.063 43.6257 3
-12 6 10 400.547 124.219 1
-11 6 10 285.289 82.5279 1
-10 -6 10 864.362 108.72 1
-10 -6 10 946.445 59.7545 3
10 6 -10 958.118 127.356 1
-10 6 10 783.669 93.6134 1
-9 -6 10 80.1618 29.0936 3
-9 -6 10 37.2143 56.1678 1
9 6 -10 -150.46 76.4887 1
9 6 -10 44.1005 63.362 2
-9 6 10 -7.8096 65.5188 1
-8 -6 10 19.7231 45.5626 1
-8 -6 10 40.3294 26.1458 3
-8 6 10 41.2638 60.9379 1
8 6 -10 77.7146 55.3081 2
8 6 -10 28.1757 66.6762 1
-7 -6 10 -36.723 23.1574 3
-7 -6 10 -23.56 39.3337 1
7 6 -10 46.204 59.9041 1
-7 6 10 45.1192 58.7008 1
7 6 -10 -108.82 50.5773 2
-6 -6 10 605.771 47.9624 3
-6 -6 10 663.896 74.485 1
6 6 -10 787.158 97.9394 1
6 6 -10 573.601 72.9927 2
-6 6 10 634.665 73.9276 1
-5 -6 10 -15.419 20.5471 3
-5 -6 10 11.6893 35.6138 1
5 6 -10 29.4824 51.5034 1
5 6 -10 95.8058 50.265 2
-4 -6 10 899.138 68.1897 1
-4 -6 10 952.776 56.1486 3
4 6 -10 900.703 91.6327 1
4 6 -10 966.97 95.5404 2
-3 -6 10 -4.758 23.4316 3
-3 -6 10 -20.159 28.9433 1
3 6 -10 16.7968 42.5259 1
3 6 -10 17.5178 42.6878 2
-2 -6 10 44.1892 26.9581 1
-2 -6 10 92.3441 23.5024 3
2 6 -10 26.2177 41.5665 1
2 6 -10 105.042 44.6403 2
-1 -6 10 4.93252 25.9938 3
-1 -6 10 -19.504 23.202 1
1 6 -10 3.28538 42.8801 2
0 -6 10 613.672 45.4651 1
0 6 -10 625.309 73.7201 2
1 -6 10 19.2609 21.6271 1
-1 6 -10 39.4491 46.6644 2
-2 -6 -10 1412.52 66.8773 3
2 -6 10 1367.45 53.4476 1
2 -6 10 1266.96 95.2827 2
-2 6 -10 1360.97 113.644 2
3 -6 10 32.2683 40.1663 2
-3 -6 -10 70.6691 26.0825 3
3 6 10 0.80405 27.7292 2
3 6 10 -29.34 22.3558 2
-3 6 -10 -19.277 50.5889 2
4 -6 10 28.5122 38.7086 2
-4 -6 -10 52.1987 27.6181 3
4 6 10 50.027 34.9684 2
-4 6 -10 186.305 60.5635 2
-5 -6 -10 -15.258 25.1245 3
5 -6 10 85.075 51.8216 2
-5 6 -10 -95.83 59.2442 2
5 6 10 33.7537 38.5544 2
5 6 10 9.7386 44.2971 1
6 -6 10 840.084 108.84 2
-6 -6 -10 665.034 53.0874 3
6 6 10 638.377 76.5409 1
-6 6 -10 636.822 91.9071 2
6 6 10 598.619 79.4287 2
-7 -6 -10 103.456 31.9186 3
7 -6 10 94.9369 67.4302 2
7 6 10 -52.817 55.8207 1
7 6 10 36.8541 54.191 2
-7 6 -10 92.2869 78.2659 2
-8 -6 -10 904.963 63.9239 3
8 6 10 830.559 106.527 2
-9 -6 -10 14.0196 34.7767 3
9 6 10 -20.226 71.3493 2
-10 -6 -10 298.196 45.6586 3
10 6 10 242.991 94.3675 2
-10 -7 10 3.56903 32.14 3
-9 -7 10 397.27 46.0108 3
-9 -7 10 418.107 79.5162 1
-9 7 10 328.956 93.2745 1
9 7 -10 175.637 118.406 1
-8 -7 10 35.9109 34.6445 3
-8 -7 10 22.6704 58.8306 1
-8 7 10 53.1444 84.3558 1
8 7 -10 13.9975 93.5337 1
-7 -7 10 879.573 63.7221 3
-7 -7 10 984.705 100.959 1
7 7 -10 849.945 106.534 1
-7 7 10 815.387 99.2677 1
-6 -7 10 34.1501 48.4717 1
-6 -7 10 72.1077 28.4377 3
6 7 -10 72.917 75.0172 1
-6 7 10 -26.03 71.9941 1
6 7 -10 110.205 83.3973 2
-5 -7 10 68.5996 45.4942 1
-5 -7 10 42.1087 28.9894 3
-5 7 10 66.5014 70.967 1
5 7 -10 -23.061 68.2146 1
5 7 -10 -35.671 67.2247 2
-4 -7 10 -0.0814 29.2127 3
-4 -7 10 10.7423 40.879 1
4 7 -10 -65.121 60.9249 1
4 7 -10 56.9586 68.0161 2
-3 -7 10 867.58 70.4898 1
-3 -7 10 953.64 66.895 3
3 7 -10 674.033 84.895 2
3 7 -10 980.018 106.555 1
-2 -7 10 70.2821 33.9363 1
-2 -7 10 13.7442 29.8284 3
2 7 -10 57.6361 62.5572 2
-1 -7 10 996.154 66.4233 3
-1 -7 10 961.37 62.1374 1
1 7 -10 1154.16 119.076 2
0 7 -10 -19.439 64.1182 2
-1 7 -10 119.953 68.1535 2
-2 -7 -10 51.5273 35.6769 3
-2 7 -10 81.3836 72.8007 2
-3 -7 -10 579.052 61.4341 3
3 7 10 517.708 71.7409 1
-3 7 -10 463.053 93.0258 2
-4 -7 -10 136.589 41.4495 3
4 -7 10 33.031 61.8913 2
4 7 10 70.182 41.325 2
-4 7 -10 -24.9 77.7332 2
4 7 10 84.6367 43.607 2
4 7 10 208.993 61.2465 1
-5 -7 -10 1075.05 74.1898 3
5 7 10 1151.74 154.281 1
5 7 10 1033.09 90.0392 2
5 7 10 962.688 82.5663 2
-6 -7 -10 98.1646 43.3466 3
-7 -7 -10 139.976 39.1915 3
-8 -7 -10 -22.082 41.7205 3
-6 -8 10 234.784 44.7987 3
6 8 -10 116.967 118.041 1
-5 -8 10 372.086 56.0919 3
-5 8 10 404.806 107.692 1
5 8 -10 471.279 119.011 1
-4 -8 10 228.303 45.9652 3
4 8 -10 244.43 99.9073 1
-3 -8 10 193.078 47.7097 3
3 8 -10 232.577 95.2079 1
-2 -8 10 1.10109 38.128 3
-1 8 10 -76.924 65.5243 1
0 8 10 36.6418 68.0665 1
1 8 10 695.396 89.9657 1
2 8 10 410.02 127.773 1
-3 -8 -10 275.581 54.2292 3
-4 -8 -10 -22.413 45.8783 3
-16 0 11 -5.1198 74.7229 1
16 0 -11 48.4169 100.082 1
-15 0 11 319.12 74.7616 1
15 0 -11 315.956 85.0383 1
14 0 -11 31.899 65.908 1
-14 0 11 3.62983 56.6941 1
-13 0 11 285.936 59.3673 1
13 0 -11 431.301 70.2826 1
-12 0 11 -69.054 42.4506 1
12 0 -11 -68.832 44.3337 1
11 0 -11 1475.17 103.832 1
-11 0 11 1545.24 102.696 1
10 0 -11 20.1216 32.3747 1
-10 0 11 -22.425 33.7609 1
-9 0 11 560.699 65.617 1
-8 0 11 22.4364 29.7124 1
8 0 -11 12.5032 17.5769 2
-7 0 11 406.685 53.0711 1
7 0 -11 298.135 34.9808 2
-6 0 11 1.87096 23.67 1
6 0 -11 -16.456 13.5204 2
5 0 -11 2161.36 80.6821 2
-5 0 11 2160.23 99.6078 1
4 0 -11 10.0823 14.7878 2
-4 0 11 -38.552 18.594 1
-3 0 11 322.03 41.0669 1
3 0 -11 381.112 33.7227 2
2 0 -11 -3.4345 13.845 2
-2 0 11 -12.867 19.5939 1
-1 0 11 597.505 37.7726 2
-1 0 11 568.817 47.8948 1
1 0 -11 535.744 39.8716 2
0 0 11 10.4634 14.3154 2
0 0 -11 -22.826 14.255 2
1 0 11 2119.02 83.5585 2
-1 0 -11 2228.17 85.1211 2
-2 0 -11 -28.77 15.5974 2
2 0 11 21.6895 16.9388 2
3 0 11 423.979 43.3189 2
-3 0 -11 432.199 41.3293 2
4 0 11 5.56032 20.3402 2
-4 0 -11 20.3343 21.4972 2
5 0 11 573.248 54.257 2
-5 0 -11 643.642 52.7461 2
6 0 11 30.4122 25.1854 2
-6 0 -11 -18.096 21.1972 2
7 0 11 2308.42 109.61 2
8 0 11 -47.291 31.4893 2
9 0 11 647.477 78.3565 2
10 0 11 9.8339 28.416 1
10 0 11 35.316 49.4774 2
11 0 11 215.227 42.5984 1
11 0 11 215.194 66.8299 2
12 0 11 62.6293 46.8368 1
12 0 11 -28.847 66.0172 2
13 0 11 903.348 118.544 2
13 0 11 1147.95 108.995 1
14 0 11 -91.099 77.4081 1
15 0 11 613.052 123.485 1
17 -1 -11 30.8123 77.0207 2
-16 1 11 329.558 88.6214 1
-15 -1 11 241.305 77.9019 1
-15 1 11 264.673 75.6765 1
15 1 -11 88.004 86.0827 1
-14 -1 11 556.434 78.3687 1
-14 1 11 639.633 90.5984 1
14 1 -11 471.064 88.9617 1
-13 -1 11 449.666 70.9509 1
13 1 -11 395.623 84.0087 1
-13 1 11 442.703 73.9379 1
-12 -1 11 128.995 51.6314 1
-12 1 11 11.0282 44.0897 1
12 1 -11 171.59 60.4398 1
-11 -1 11 63.2736 42.3925 1
-11 1 11 59.4841 43.3591 1
11 1 -11 41.5379 42.1064 1
-10 -1 11 889.263 80.9886 1
10 1 -11 932.046 86.9775 1
-10 1 11 941.434 86.0366 1
-9 -1 11 449.361 60.8108 1
9 1 -11 357.127 49.2253 1
-9 1 11 510.359 69.1611 1
-8 -1 11 1452.39 100.085 1
8 -1 -11 1468.65 61.002 2
8 1 -11 1449.11 90.7367 1
-8 1 11 1434.71 90.1467 1
8 1 -11 1538.71 73.8591 2
-7 -1 11 501.754 58.1947 1
7 -1 -11 450.226 35.9806 2
7 1 -11 463.586 42.5733 2
-7 1 11 497.002 61.8329 1
7 1 -11 427.094 56.8457 1
6 -1 -11 464.852 33.47 2
-6 -1 11 378.057 51.243 1
-6 1 11 438.343 53.7557 1
6 1 -11 435.05 40.8732 2
5 -1 -11 -10.44 13.0603 2
-5 -1 11 -10.124 5.96219 3
-5 -1 11 -6.0157 22.847 1
-5 1 11 -14.509 22.557 1
5 1 -11 -14.3 15.7686 2
4 -1 -11 896.428 42.4668 2
-4 -1 11 820.746 63.3268 1
4 1 -11 875.592 52.2011 2
-4 1 11 872.381 63.5335 1
3 -1 -11 646.644 36.103 2
-3 -1 11 660.575 54.3482 1
3 1 -11 723.621 46.7348 2
-3 1 11 585.851 53.6832 1
-2 -1 11 3132.51 119.429 1
2 -1 -11 3203.17 99.573 2
2 1 -11 3266.76 112.986 2
-1 -1 11 454.744 44.1121 1
1 -1 -11 463.176 32.3455 2
-1 -1 11 515.099 38.0739 2
-1 1 11 503.706 31.6731 2
1 1 -11 572.919 44.7734 2
0 -1 -11 1017.49 49.1301 2
0 -1 11 1067.86 53.7867 2
0 -1 11 1047.83 60.3901 1
0 1 -11 978.428 58.1208 2
0 1 11 995.935 47.4346 2
-1 -1 -11 -0.4729 14.8203 2
1 -1 11 13.8117 18.6823 2
-1 1 -11 -9.5648 20.1251 2
1 1 11 -6.8281 15.5869 2
2 -1 11 458.619 42.2428 2
-2 -1 -11 433.255 37.4483 2
2 1 11 473.69 38.7249 2
-2 1 -11 463.658 44.0738 2
-3 -1 -11 496.235 40.8424 2
3 -1 11 499.74 46.567 2
-3 1 -11 435.533 46.4598 2
3 1 11 479.35 41.0715 2
4 -1 11 1837.98 87.9969 2
-4 -1 -11 1813.58 77.5679 2
4 1 11 1785.69 80.5654 2
-4 1 -11 1884.41 87.6196 2
5 -1 11 570.475 58.1844 2
-5 1 -11 543.925 53.1584 2
5 1 11 620.495 52.7018 2
6 -1 11 728.249 70.9578 2
-6 1 -11 859.55 66.0098 2
6 1 11 733.925 62.361 2
7 -1 11 49.1325 35.4115 2
-7 1 -11 8.21082 31.5133 2
7 1 11 -7.6847 33.7032 2
8 -1 11 159.053 40.7803 2
8 1 11 240.48 45.0612 2
-8 1 -11 218.177 42.9804 2
9 -1 11 271.207 48.3256 2
9 1 11 258.34 53.2539 2
10 -1 11 1157.68 103.039 2
10 1 11 1035.62 74.6243 1
10 1 11 1071.82 103.839 2
11 -1 11 279.724 46.2858 1
11 -1 11 348.576 75.5411 2
11 1 11 304.914 72.3493 2
11 1 11 322.188 56.4081 1
12 -1 11 211.3 44.6572 1
12 -1 11 182.615 77.6708 2
12 1 11 381.786 82.5012 2
12 1 11 71.2686 56.025 1
13 -1 11 85.8513 57.3518 1
13 1 11 76.9883 62.6535 1
13 1 11 26.878 83.5482 2
14 -1 11 165.313 100.89 1
14 1 11 -104.79 81.5277 1
17 -2 -11 326.144 99.8261 2
-17 2 11 248.165 104.741 1
16 -2 -11 333.604 75.506 2
-16 2 11 224.757 89.2015 1
-15 -2 11 108.447 72.2244 1
15 -2 -11 38.8938 57.1247 2
-15 2 11 23.0557 77.0132 1
15 2 -11 58.1865 92.5522 1
14 -2 -11 94.1959 45.7021 2
-14 -2 11 2.03984 54.7702 1
-14 2 11 2.79185 64.6574 1
14 2 -11 33.5442 77.2272 1
-13 -2 11 130.476 53.139 1
13 -2 -11 56.2172 36.513 2
13 2 -11 15.8395 60.6671 1
-13 2 11 25.3839 57.0645 1
-12 -2 11 494.612 68.0024 1
-12 2 11 581.871 79.282 1
12 2 -11 524.67 79.9426 1
-11 -2 11 292.716 53.2772 1
11 2 -11 281.825 58.0472 1
-11 2 11 332.472 61.7522 1
-10 -2 11 595.183 76.5941 1
-10 2 11 753.363 85.1407 1
10 2 -11 799.348 86.4631 1
-9 -2 11 234.618 49.9984 1
9 2 -11 244.368 40.7028 2
9 2 -11 145.287 45.1757 1
-9 2 11 203.428 46.94 1
-8 -2 11 106.586 15.9057 3
-8 -2 11 93.6038 34.3421 1
8 -2 -11 106.705 19.8312 2
-8 2 11 43.2232 33.0852 1
8 2 -11 133.936 45.8033 1
8 2 -11 23.6295 22.9395 2
7 -2 -11 52.0908 13.9423 2
-7 -2 11 48.0888 10.9922 3
7 2 -11 55.935 23.3629 2
-7 2 11 45.0513 32.279 1
6 -2 -11 760.486 35.4187 2
-6 -2 11 739.24 31.5157 3
-6 -2 11 852.478 63.8189 1
-6 2 11 867.17 68.3857 1
6 2 -11 695.296 63.802 1
6 2 -11 691.731 52.1642 2
-5 -2 11 1284.91 77.4333 1
5 -2 -11 1223.44 43.941 2
-5 -2 11 1233.65 40.9007 3
5 2 -11 1166.59 66.6507 2
-5 2 11 1272.87 78.6623 1
5 2 -11 1195.09 75.4961 1
-4 -2 11 1440.72 78.4277 1
4 -2 -11 1457.6 47.9963 2
-4 -2 11 1445.47 45.7461 3
-4 2 11 1438.63 80.9302 1
-4 2 11 1480.62 49.6554 3
4 2 -11 1418 72.8373 2
-3 -2 11 101.343 12.3022 3
-3 -2 11 56.6877 23.1602 1
3 2 -11 79.6937 23.3593 2
-2 -2 11 51.3468 10.6147 3
-2 -2 11 10.4713 19.0235 1
2 -2 -11 52.9079 11.1762 2
2 2 -11 24.5373 19.0776 2
1 -2 -11 161.567 19.7593 2
-1 -2 11 185.91 29.1651 2
-1 -2 11 180.662 29.7913 1
-1 2 11 189.36 18.8222 2
1 2 -11 220.968 36.8912 2
0 -2 11 2031.8 86.1838 2
0 -2 11 2086.49 88.5662 1
0 2 -11 2044.88 89.9751 2
0 2 11 2021.9 67.6183 2
1 -2 11 694.856 49.9122 2
1 -2 11 727.832 50.2406 1
1 2 11 686.888 38.0853 2
-1 2 -11 761.575 57.0688 2
2 -2 11 997.429 58.1875 1
2 -2 11 990.485 62.1557 2
-2 2 -11 1109.15 66.465 2
2 2 11 971.344 51.1664 2
3 -2 11 417.014 50.1172 2
3 -2 11 459.142 43.789 1
3 2 11 433.658 39.5448 2
-3 2 -11 354.746 49.0556 2
-3 2 -11 424.567 24.8511 3
4 -2 11 154.34 32.281 2
4 2 11 235.705 33.8649 2
-4 2 -11 251.981 22.1193 3
-4 2 -11 223.514 36.9788 2
5 -2 11 247.356 45.3075 2
-5 2 -11 293.429 46.8596 2
5 2 11 253.642 37.3616 2
-5 2 -11 263.719 27.9946 3
6 -2 11 1207.58 85.1619 2
-6 2 -11 1244.74 81.2497 2
6 2 11 1105.51 73.8974 2
-7 -2 -11 655.146 26.4995 3
7 -2 11 540.008 74.7955 2
7 2 11 681.052 69.1752 2
-7 2 -11 687.354 72.2015 2
-8 -2 -11 879.462 33.7168 3
8 -2 11 844.808 87.9771 2
8 2 11 959.607 82.8385 2
-8 2 -11 971.336 82.9012 2
9 -2 11 200.446 51.9722 2
9 -2 11 291.22 35.9957 1
-9 -2 -11 243.8 22.0989 3
-9 2 -11 422.065 63.2669 2
9 2 11 314.306 59.7665 2
10 -2 11 92.7717 54.2451 2
10 -2 11 6.73519 29.8372 1
-10 -2 -11 -16.783 14.7815 3
10 2 11 15.8236 39.29 1
10 2 11 12.3574 50.0285 2
11 -2 11 -24.822 57.7941 2
11 -2 11 7.24436 36.1072 1
11 2 11 37.6317 45.2904 1
12 -2 11 454.625 68.2694 1
12 -2 11 275.987 81.0017 2
12 2 11 451.752 88.3341 2
12 2 11 243.747 65.3608 1
13 -2 11 522.35 67.782 1
13 2 11 478.121 79.6316 1
13 2 11 483.506 101.35 2
-16 3 11 86.9564 90.3401 1
15 -3 -11 822.167 103.906 2
-15 3 11 815.255 102.862 1
14 -3 -11 44.0053 45.8169 2
-14 -3 11 7.67097 21.9249 3
-14 -3 11 38.7941 64.7263 1
-14 3 11 7.3714 71.6886 1
14 3 -11 -94.662 90.4885 1
-13 -3 11 578.346 41.7014 3
13 -3 -11 654.009 64.6454 2
-13 -3 11 524.888 78.5573 1
13 3 -11 442.401 93.627 1
-13 3 11 431.386 77.2917 1
-12 -3 11 -40.759 40.2706 1
12 -3 -11 39.5207 29.9998 2
-12 -3 11 -50.953 15.9802 3
-12 3 11 -12.837 59.542 1
12 3 -11 41.9786 63.2812 1
-11 -3 11 6.94508 17.2045 3
-11 -3 11 -2.1955 40.4717 1
11 -3 -11 44.2755 24.2189 2
-11 3 11 -100.88 45.6249 1
11 3 -11 89.471 55.402 1
-10 -3 11 30.0724 15.292 3
-10 -3 11 84.2647 43.0376 1
10 3 -11 59.6005 36.5209 2
-10 3 11 -20.242 43.463 1
10 3 -11 -16.422 47.7912 1
9 -3 -11 1179.35 47.0485 2
-9 -3 11 1269.06 87.9414 1
9 -3 -11 1212.35 47.3054 2
-9 -3 11 1310.22 50.3002 3
9 3 -11 1072.6 79.4878 2
9 3 -11 1091.41 95.0858 1
-9 3 11 1313.49 97.776 1
-8 -3 11 45.6864 32.513 1
-8 -3 11 58.566 16.8879 3
8 3 -11 58.0734 33.404 2
8 3 -11 26.0011 37.6908 1
-7 -3 11 1640.8 91.9174 1
-7 -3 11 1452.55 59.5086 3
7 3 -11 1485.5 84.6697 2
-7 3 11 1675.49 98.2995 1
7 3 -11 1569.83 94.2106 1
-6 -3 11 39.0859 12.7042 3
-6 -3 11 35.2182 33.1652 1
-6 3 11 40.8414 35.5496 1
6 3 -11 10.7199 23.3194 2
-5 -3 11 16.3324 26.5155 1
-5 -3 11 14.1312 10.5451 3
5 3 -11 5.26418 26.9288 1
5 3 -11 -26.97 23.6253 2
-5 3 11 -38.447 29.2513 1
-4 -3 11 16.5754 26.1456 1
-4 -3 11 15.2112 11.0489 3
4 3 -11 16.3176 26.0261 1
-4 3 11 36.8779 21.0556 3
4 3 -11 -4.4177 22.7914 2
-3 -3 11 2221.82 67.8096 3
-3 -3 11 2218.2 99.5392 1
-3 3 11 2194.25 66.9324 3
3 3 -11 2124.26 98.4421 2
-2 -3 11 77.7903 23.3677 1
-2 -3 11 47.2583 13.2889 3
-2 3 11 76.7628 15.9916 3
2 3 -11 11.5447 21.1488 2
-1 -3 11 1393.24 71.3139 2
-1 -3 11 1421.84 48.7532 3
-1 -3 11 1281.69 69.9952 1
1 3 -11 1335.53 76.8844 2
0 -3 11 35.6015 23.5243 1
0 -3 11 2.17409 23.9664 2
0 3 11 14.5714 10.0703 2
0 3 -11 51.5701 27.1162 2
0 3 -11 48.6586 12.6508 3
1 -3 11 70.8081 26.0834 2
1 -3 11 81.0541 24.9067 1
1 3 11 35.7578 15.3845 2
-1 3 -11 44.007 24.4389 2
-1 3 -11 56.0149 13.8984 3
2 -3 11 49.3062 25.1046 1
2 3 11 74.3508 18.8674 2
-2 3 -11 44.9982 17.453 3
-2 3 -11 99.7281 55.2681 2
3 -3 11 1331.1 66.3867 1
3 -3 11 1301.23 78.1917 2
3 3 11 1385.04 63.217 2
-3 3 -11 1324.4 81.4195 2
-3 3 -11 1298.24 49.1265 3
4 -3 11 -4.2351 27.2523 2
4 -3 11 15.7275 21.9838 1
-4 3 -11 14.9477 30.4094 2
4 3 11 6.49856 23.2033 2
-5 -3 -11 1656.13 52.5164 3
5 -3 11 1594.74 74.0047 1
5 -3 11 1744.94 96.464 2
-5 3 -11 1818.37 99.3415 2
5 3 11 1798.97 83.1808 2
6 -3 11 -18.66 33.8429 2
6 -3 11 -15.194 25.0374 1
-6 -3 -11 4.39843 10.96 3
-6 3 -11 -16.211 32.6324 2
6 3 11 -44.819 28.138 2
7 -3 11 -42.185 40.2063 2
7 -3 11 -23.743 25.7753 1
-7 -3 -11 -12.011 11.6717 3
7 3 11 -25.621 35.7776 2
-7 3 -11 23.4931 41.7872 2
8 -3 11 47.7168 49.2274 2
8 -3 11 3.89605 28.6796 1
-8 -3 -11 3.71386 12.8823 3
-8 3 -11 5.7481 48.2455 2
8 3 11 9.35923 38.7503 2
-9 -3 -11 859.859 42.4694 3
9 -3 11 896.435 55.179 1
9 -3 11 927.877 108.05 2
-9 3 -11 803.75 97.7436 2
9 3 11 892.893 95.8013 2
9 3 11 684.973 76.972 1
-10 -3 -11 33.2675 18.3976 3
10 -3 11 20.5154 66.4415 2
10 -3 11 26.8226 28.837 1
10 3 11 46.0236 57.2349 2
10 3 11 -50.771 43.5244 1
-10 3 -11 126.54 59.8096 2
-11 -3 -11 986.006 50.7758 3
11 -3 11 909.592 115.593 2
11 -3 11 1221.01 74.6622 1
11 3 11 1089 129.309 2
11 3 11 911.325 103.953 1
-12 -3 -11 3.69129 24.8961 3
12 -3 11 -138.18 55.1728 1
12 3 11 160.161 80.1273 2
12 3 11 65.9153 107.118 1
-13 -3 -11 28.0581 27.8194 3
-15 -4 11 46.1846 28.7055 3
-15 4 11 -33.99 91.5641 1
-14 -4 11 15.6495 28.6665 3
-14 4 11 -71.885 79.466 1
-13 -4 11 9.83348 61.7199 1
-13 -4 11 136.135 30.9243 3
13 -4 -11 -37.934 38.6868 2
-13 4 11 129.233 70.1251 1
13 4 -11 25.6649 65.1563 2
13 4 -11 133.74 88.6151 1
12 -4 -11 662.083 54.5347 2
-12 -4 11 783.014 102.979 1
-12 -4 11 720.007 48.7079 3
-12 4 11 1043.17 119.976 1
12 4 -11 788.925 105.413 2
12 4 -11 807.488 113.013 1
-11 -4 11 280.587 32.1634 3
-11 -4 11 303.104 65.982 1
-11 4 11 298.995 70.7862 1
11 4 -11 453.181 88.8334 1
11 4 -11 229.589 58.6099 2
-10 -4 11 446.206 38.6436 3
-10 -4 11 414.467 60.5507 1
-10 4 11 443.714 71.1529 1
10 4 -11 384.556 74.2613 1
10 4 -11 605.683 82.8737 2
-9 -4 11 70.578 18.6418 3
-9 -4 11 67.667 41.288 1
-9 4 11 39.9846 50.0302 1
9 4 -11 113.747 42.1174 2
9 4 -11 115.632 55.5573 1
-8 -4 11 -29.066 33.1773 1
-8 -4 11 34.745 17.4802 3
-8 4 11 0.27227 43.8142 1
8 4 -11 77.3782 32.7062 2
8 4 -11 -10.407 43.184 1
-7 -4 11 77.6141 17.7985 3
-7 -4 11 35.0736 35.073 1
7 4 -11 10.3152 37.9567 1
-7 4 11 11.2058 44.0921 1
7 4 -11 18.1864 28.9551 2
-6 -4 11 1181.9 81.9179 1
-6 -4 11 1323.6 54.6136 3
6 4 -11 1325.78 85.5893 2
6 4 -11 1361.95 93.3732 1
-5 -4 11 411.048 31.5724 3
5 4 -11 433.956 55.0124 2
-4 -4 11 909.44 67.0587 1
-4 -4 11 942.359 45.6258 3
4 4 -11 1020 74.3393 2
4 4 -11 993.803 73.8095 1
-3 -4 11 216.477 37.7682 1
-3 -4 11 200.798 23.9744 3
3 4 -11 138.818 33.7066 2
-2 -4 11 24.3929 25.5173 1
-2 -4 11 29.1916 14.0831 3
2 4 -11 -25.535 27.087 2
-1 -4 11 188.927 21.6806 3
-1 -4 11 137.93 31.1749 1
1 4 -11 92.8366 30.3931 2
0 -4 11 919.153 60.3969 1
0 -4 11 1080 69.508 2
0 4 11 981.789 42.329 3
0 4 -11 1000.07 73.1295 2
1 -4 11 362.171 44.455 1
1 -4 11 434.158 52.1366 2
-1 4 -11 418.329 54.9641 2
-2 -4 -11 2353.1 71.7297 3
2 -4 11 2271.19 91.4044 1
2 -4 11 2363.68 109.724 2
-2 4 -11 2216 114.349 2
2 4 11 2190.02 76.2033 2
3 -4 11 54.3401 32.3237 2
-3 -4 -11 29.2294 14.7768 3
3 -4 11 31.9814 24.3317 1
3 4 11 44.7 23.3359 2
-3 4 -11 141.558 39.8501 2
4 -4 11 -4.073 31.7289 2
-4 -4 -11 41.4133 13.8367 3
4 -4 11 23.0086 23.8351 1
-4 4 -11 -54.185 35.8314 2
4 4 11 11.7308 25.4892 2
-5 -4 -11 3.00047 15.3616 3
5 -4 11 -9.2999 36.6513 2
5 -4 11 11.5861 22.3732 1
5 4 11 41.0075 33.0497 2
-5 4 -11 -25.826 34.3544 2
-6 -4 -11 791.881 38.1473 3
6 -4 11 865.162 89.9196 2
6 -4 11 703.606 51.128 1
6 4 11 751.569 69.97 2
-6 4 -11 831.814 88.2285 2
7 -4 11 262.048 33.1221 1
7 -4 11 432.432 67.9163 2
-7 -4 -11 318.89 33.1832 3
7 4 11 271.43 53.9104 2
-7 4 -11 229.625 60.6151 2
8 -4 11 1121.89 108.467 2
-8 -4 -11 968.085 49.4038 3
8 4 11 920.305 97.8592 2
-8 4 -11 1110.78 106.937 2
8 4 11 842.324 81.3915 1
-9 -4 -11 195.816 28.351 3
9 -4 11 194.991 62.3008 2
-9 4 -11 177.501 72.0346 2
9 4 11 184.304 61.894 2
9 4 11 132.656 56.1893 1
-10 -4 -11 34.3683 24.6417 3
10 -4 11 -74.658 68.3331 2
-10 4 -11 0.61478 71.593 2
10 4 11 66.5149 68.7641 2
10 4 11 -26.15 53.6952 1
-11 -4 -11 20.3713 27.372 3
11 4 11 16.319 81.7872 2
-12 -4 -11 637.851 55.8888 3
12 4 11 711.572 116.271 2
-14 -5 11 446.549 46.8993 3
-14 5 11 374.652 105.372 1
-13 -5 11 168.66 29.7074 3
-13 5 11 324.805 87.1744 1
-12 -5 11 28.3903 23.3698 3
-12 -5 11 105.454 102.432 1
-12 5 11 -19.484 81.144 1
-11 -5 11 -1.5307 57.4927 1
-11 -5 11 34.7573 23.1625 3
11 5 -11 -20.274 59.0207 2
11 5 -11 -15.194 82.4252 1
-11 5 11 33.6142 69.5615 1
-10 -5 11 221.166 34.3093 3
-10 -5 11 250.617 59.3543 1
-10 5 11 245.117 66.556 1
10 5 -11 187.083 77.8293 1
10 5 -11 151.288 63.1097 2
-9 -5 11 598.01 75.2373 1
-9 -5 11 593.375 44.4552 3
9 5 -11 551.448 93.7569 1
-9 5 11 458.062 77.8865 1
9 5 -11 703.646 81.6452 2
-8 -5 11 640.107 73.358 1
-8 -5 11 617.542 43.9049 3
8 5 -11 730.926 84.436 2
-8 5 11 691.566 80.006 1
8 5 -11 670.55 81.4608 1
-7 -5 11 510.409 39.6957 3
-7 -5 11 350.735 59.5551 1
7 5 -11 392.656 60.2464 2
-7 5 11 461.012 70.9585 1
7 5 -11 396.226 65.3158 1
-6 -5 11 87.4466 39.3823 1
-6 -5 11 95.751 23.7034 3
6 5 -11 157.606 50.5586 1
6 5 -11 79.8809 42.7943 2
-6 5 11 110.958 54.5538 1
-5 -5 11 35.3193 21.3123 3
-5 -5 11 57.1303 32.6142 1
5 5 -11 -23.978 36.7088 2
-5 5 11 122.342 46.2671 1
5 5 -11 -41.162 40.7344 1
-4 -5 11 323.671 35.3921 3
4 5 -11 354.167 53.6286 2
-3 -5 11 412.549 39.5395 3
-3 -5 11 451.257 55.3691 1
3 5 -11 471.447 56.9341 1
3 5 -11 516.947 64.4306 2
-2 -5 11 941.615 65.1518 1
-2 -5 11 1008.58 53.5262 3
2 5 -11 996.41 82.1098 2
-1 -5 11 779.071 58.1427 1
-1 -5 11 781.355 49.5166 3
1 5 -11 734.047 75.881 2
0 -5 11 375.349 39.8425 1
0 5 -11 339.735 51.0511 2
1 -5 11 24.8617 33.2036 2
-1 5 -11 33.8245 39.7759 2
2 -5 11 120.163 28.3641 1
-2 -5 -11 170.284 23.6366 3
2 -5 11 93.1338 33.3875 2
-2 5 -11 111.758 47.7093 2
3 -5 11 510.356 65.546 2
3 -5 11 508.631 43.1849 1
3 5 11 550.162 47.0461 2
-3 5 -11 666.287 89.9478 2
-4 -5 -11 1088.95 54.5779 3
4 -5 11 1179.94 96.9631 2
4 -5 11 1057.44 51.2381 1
-4 5 -11 1028.17 98.27 2
4 5 11 1175.49 67.9359 2
-5 -5 -11 547.874 43.7843 3
5 -5 11 518.238 69.2178 2
5 5 11 490.748 55.6478 2
-5 5 -11 517.061 73.2499 2
6 -5 11 393.976 65.0065 2
-6 -5 -11 239.886 30.4734 3
-6 5 -11 258.06 64.716 2
6 5 11 314.825 52.7395 2
-7 -5 -11 4.69431 23.3504 3
7 -5 11 -25.442 57.4121 2
-7 5 -11 -25.878 62.9609 2
7 5 11 16.1498 46.2172 1
8 -5 11 138.528 72.6461 2
-8 -5 -11 162.228 32.6247 3
8 5 11 164.939 60.7932 1
8 5 11 168.874 65.0235 2
-8 5 -11 117.938 71.8199 2
-9 -5 -11 144.823 31.9775 3
9 5 11 89.2686 71.0059 2
-10 -5 -11 498.969 50.0919 3
10 5 11 470.275 97.467 2
-11 -5 -11 541.969 61.0774 3
11 5 11 450.483 107.152 2
-12 -6 11 -10.877 35.0081 3
-11 -6 11 848.615 63.1275 3
-11 6 11 893.613 110.533 1
-10 -6 11 128.401 68.8375 1
10 6 -11 3.60437 97.5624 1
-10 6 11 93.2243 78.7128 1
-9 -6 11 147.576 36.0287 3
-9 -6 11 80.3048 61.2652 1
9 6 -11 180.993 110.576 2
-9 6 11 180.75 77.4727 1
9 6 -11 217.675 87.9659 1
-8 -6 11 -17.47 26.4873 3
-8 -6 11 72.7649 50.4841 1
8 6 -11 75.315 71.9387 1
-8 6 11 53.1711 68.6667 1
8 6 -11 54.3124 67.6076 2
-7 -6 11 274.169 54.1065 1
-7 -6 11 203.663 34.7312 3
7 6 -11 322.392 67.2173 2
-7 6 11 339.4 80.3379 1
7 6 -11 233.747 72.4132 1
-6 -6 11 -23.854 25.0712 3
-6 -6 11 15.9599 47.8917 1
6 6 -11 -82.921 57.0256 1
6 6 -11 10.3907 57.9107 2
-6 6 11 -46.602 60.805 1
-5 -6 11 981.521 84.0561 1
-5 -6 11 994.125 59.8419 3
5 6 -11 982.519 109.37 2
5 6 -11 1076.56 111.015 1
-4 -6 11 35.1639 35.5994 1
-4 -6 11 -6.6631 25.2683 3
4 6 -11 -70.286 48.6439 1
4 6 -11 73.716 48.8492 2
-3 -6 11 213.836 32.9493 3
3 6 -11 280.877 58.6805 2
-2 -6 11 46.8414 31.7232 1
-2 -6 11 -7.4425 25.9804 3
-1 -6 11 207.778 36.0348 3
-1 -6 11 244.255 38.5105 1
1 6 -11 307.249 62.266 2
0 -6 11 1.28577 27.646 1
0 6 -11 -34.126 54.777 2
1 -6 11 1143.38 60.7818 1
-1 6 -11 1437.4 115.027 2
2 -6 11 16.0254 45.2364 2
2 -6 11 45.0445 20.9773 1
-2 -6 -11 -25.901 27.4909 3
-2 6 -11 -85.738 53.3089 2
-3 -6 -11 365.599 41.8135 3
3 -6 11 350.043 63.1699 2
-3 6 -11 405.825 72.7124 2
4 -6 11 24.4293 42.6476 2
-4 -6 -11 61.909 27.6878 3
-4 6 -11 14.7462 60.1961 2
4 6 11 34.6893 36.9947 2
-5 -6 -11 276.374 39.7451 3
5 -6 11 412.453 75.3466 2
-5 6 -11 424.824 80.2513 2
5 6 11 246.205 51.6004 2
6 -6 11 -21.346 66.7368 2
-6 -6 -11 65.2607 30.1285 3
6 6 11 70.8287 52.8856 2
6 6 11 191.947 59.2741 1
-6 6 -11 -3.0497 79.1496 2
-7 -6 -11 1001.9 65.1415 3
7 6 11 876.599 109.818 2
-8 -6 -11 33.5846 35.2609 3
8 6 11 73.4519 73.7629 2
-9 -6 -11 481.08 52.1871 3
9 6 11 529.798 99.2199 2
-10 -7 11 286.049 51.344 3
-9 -7 11 68.186 38.9039 3
-9 7 11 -16.665 138.205 1
-8 -7 11 934.805 70.3903 3
-8 -7 11 844.849 94.2063 1
-8 7 11 781.613 117.215 1
8 7 -11 886.728 131.067 1
-7 -7 11 36.0346 32.3461 3
-7 -7 11 -8.6025 62.2356 1
-7 7 11 -19.503 91.7168 1
7 7 -11 -15.938 94.1476 1
-6 -7 11 110.675 35.4706 3
-6 -7 11 309.967 65.5362 1
-6 7 11 161.174 83.8705 1
6 7 -11 122.319 86.8758 1
-5 -7 11 -62.072 49.2606 1
-5 -7 11 22.5942 32.98 3
5 7 -11 57.3167 73.5021 1
-5 7 11 -84.52 78.2904 1
-4 -7 11 393.842 56.4812 1
-4 -7 11 358.72 48.0782 3
4 7 -11 285.062 73.9268 2
4 7 -11 359.657 74.5834 1
-3 -7 11 -50.723 39.834 1
-3 -7 11 19.0556 34.1709 3
3 7 -11 -38.267 70.4469 2
3 7 -11 -4.1599 67.1917 1
-2 -7 11 1141.4 83.9557 1
-2 -7 11 1174.57 75.1259 3
2 7 -11 1188.47 138.27 2
-1 -7 11 80.6584 33.6639 1
1 7 -11 -24.966 69.75 2
0 -7 11 341.881 37.833 1
0 7 -11 248.562 77.2819 2
-1 7 -11 223.463 85.2173 2
-2 7 -11 224.227 95.9428 2
-3 -7 -11 48.0452 40.5608 3
-4 -7 -11 1058.48 76.0702 3
-5 -7 -11 199.254 43.3533 3
-6 -7 -11 275.087 50.477 3
-7 -7 -11 -14.869 44.3092 3
-5 -8 11 336.595 53.6284 3
-5 8 11 275.525 119.948 1
5 8 -11 515.75 142.336 1
-4 -8 11 287.745 49.3213 3
-3 -8 11 22.1509 45.1473 3
-2 -8 11 -22.464 40.8044 3
0 8 11 363.087 82.5812 1
-15 0 12 -49.205 73.5184 1
15 0 -12 10.8492 86.3146 1
-14 0 12 123.958 69.6106 1
14 0 -12 -34.057 70.7757 1
13 0 -12 7.55733 62.419 1
-13 0 12 85.3358 63.4247 1
12 0 -12 1067.55 114.046 1
-12 0 12 1055.74 106.577 1
-11 0 12 60.2945 47.1052 1
-10 0 12 607.433 79.6309 1
-9 0 12 4.21744 36.8916 1
9 0 -12 -4.1657 23.0509 2
-8 0 12 174.096 42.1817 1
8 0 -12 121.374 26.7126 2
-7 0 12 -44.008 37.2439 1
-6 0 12 1577.97 114.088 1
6 0 -12 1566.34 69.6561 2
-5 0 12 0.74053 25.3458 1
5 0 -12 -2.6604 17.6348 2
4 0 -12 1128.8 57.1825 2
-4 0 12 1189.76 72.6483 1
3 0 -12 -5.5403 18.5827 2
-3 0 12 52.2472 21.9796 1
-2 0 12 139.397 32.1619 1
2 0 -12 171.4 26.3583 2
-1 0 12 -6.9417 21.731 1
1 0 -12 10.5279 19.0223 2
-1 0 12 7.07506 13.9777 2
0 0 12 1972.64 76.5495 2
0 0 -12 2003.96 81.2677 2
1 0 12 2.36966 16.759 2
-1 0 -12 -37.534 18.0896 2
2 0 12 1501.61 73.3406 2
-2 0 -12 1573.19 74.253 2
3 0 12 -4.0707 21.0863 2
-3 0 -12 17.4571 20.3283 2
4 0 12 116.931 33.3401 2
-4 0 -12 160.754 35.4744 2
-5 0 -12 8.98955 24.7202 2
5 0 12 -20.653 26.075 2
6 0 12 2271.46 126.754 2
-6 0 -12 2825.4 114.377 2
7 0 12 -6.1429 28.5294 2
8 0 12 951.742 82.9849 2
9 0 12 4.06496 45.8944 2
10 0 12 -0.0876 35.4815 1
10 0 12 65.3179 53.8878 2
11 0 12 -35.688 43.5785 1
11 0 12 54.2991 66.6132 2
12 0 12 787.732 80.1207 1
12 0 12 724.611 107.262 2
13 0 12 -60.27 64.752 1
14 0 12 1168.76 160.787 1
17 -1 -12 354.678 92.2134 2
-16 1 12 54.2024 86.5393 1
-15 -1 12 736.352 93.5159 1
-15 1 12 686.323 105.737 1
15 1 -12 668.621 113.152 1
-14 -1 12 330.824 75.2071 1
14 1 -12 412.906 90.1754 1
-14 1 12 324.6 80.3249 1
-13 -1 12 228.255 65.1419 1
-13 1 12 244.27 65.1219 1
13 1 -12 258.369 83.6225 1
-12 -1 12 87.0469 52.9297 1
-12 1 12 -20.329 46.9936 1
12 1 -12 -76.358 51.2948 1
-11 -1 12 240.782 56.1219 1
11 1 -12 247.871 60.4344 1
-11 1 12 330.182 62.9941 1
-10 -1 12 220.456 51.926 1
10 1 -12 144.986 44.6439 1
-10 1 12 137.316 48.2484 1
10 1 -12 236.337 38.5249 2
9 -1 -12 1399.89 67.0577 2
-9 -1 12 1427.99 97.6985 1
9 1 -12 1487.37 78.1301 2
-9 1 12 1492.24 100.199 1
9 1 -12 1491.61 98.5625 1
8 -1 -12 557.945 43.6357 2
-8 -1 12 666.607 71.9284 1
-8 1 12 446.968 59.9576 1
8 1 -12 522.706 66.5748 1
8 1 -12 631.916 53.0459 2
7 -1 -12 579.294 41.191 2
-7 -1 12 642.72 64.4894 1
7 1 -12 571.507 50.2071 2
6 -1 -12 6.07021 16.4746 2
-6 -1 12 39.1155 28.6341 1
6 1 -12 30.4302 21.4802 2
-6 1 12 -24.971 26.5615 1
-5 -1 12 107.786 11.9609 3
5 -1 -12 92.0958 21.2087 2
-5 -1 12 103.116 30.8448 1
-5 1 12 57.3457 24.2151 1
5 1 -12 105.663 27.0644 2
4 -1 -12 279.749 30.3512 2
-4 -1 12 228.338 36.9568 1
4 1 -12 321.658 39.5497 2
-4 1 12 299.553 44.6462 1
-3 -1 12 2614.88 113.462 1
3 -1 -12 2705.77 89.3642 2
-3 1 12 2665.04 113.661 1
3 1 -12 2773.63 102.912 2
-2 -1 12 545.381 53.4146 1
2 -1 -12 578.312 37.5182 2
2 1 -12 591.139 47.8326 2
-1 -1 12 1059.93 56.8515 2
1 -1 -12 1075.31 51.932 2
-1 -1 12 1084.82 68.035 1
1 1 -12 1070.13 60.5191 2
-1 1 12 1015.28 47.4198 2
0 -1 -12 123.319 24.0314 2
0 -1 12 116.422 25.7971 2
0 -1 12 102.375 27.4507 1
0 1 12 104.67 19.5448 2
0 1 -12 108.897 26.489 2
-1 -1 -12 46.9566 17.4074 2
1 -1 12 -3.1841 17.6559 2
1 -1 12 9.68415 21.2107 1
1 1 12 21.5457 19.5309 2
-1 1 -12 44.0286 21.2422 2
2 -1 12 319.554 43.3825 2
-2 -1 -12 277.878 33.6051 2
2 1 12 292.485 35.2608 2
-2 1 -12 346.968 45.1216 2
-3 -1 -12 1565.88 70.8205 2
3 -1 12 1609.36 80.3588 2
3 1 12 1554.59 74.9638 2
-3 1 -12 1484.79 81.1557 2
4 -1 12 631.236 56.7401 2
-4 -1 -12 595.538 50.6699 2
4 1 12 642.985 54.7787 2
-4 1 -12 660.13 58.1323 2
5 -1 12 744.595 82.7915 2
-5 1 -12 1020.58 71.2622 2
5 1 12 948.477 65.2666 2
6 -1 12 149.262 39.8712 2
-6 1 -12 153.984 37.2266 2
6 1 12 168.885 35.7586 2
7 -1 12 1.78279 36.0409 2
7 1 12 -38.564 36.7043 2
-7 1 -12 -40.986 31.9996 2
8 -1 12 313.187 60.257 2
8 1 12 221.773 51.9153 2
-8 1 -12 233.909 47.5304 2
9 -1 12 900.055 100.412 2
9 1 12 995.862 101.39 2
10 -1 12 243.229 63.7029 2
10 -1 12 357.253 48.3692 1
10 1 12 374.855 74.1452 2
10 1 12 259.623 47.0056 1
11 -1 12 579.986 93.7262 2
11 -1 12 421.826 52.7253 1
11 1 12 381.302 83.5198 2
11 1 12 429.849 62.9109 1
12 -1 12 -76.946 75.4026 2
12 -1 12 224.501 54.1101 1
12 1 12 -109.82 73.0407 2
12 1 12 135.706 59.0627 1
13 -1 12 57.2323 66.1795 1
13 1 12 46.805 75.6779 1
14 -1 12 75.3404 101.844 1
16 -2 -12 -14.569 78.1028 2
-16 2 12 -77.406 93.384 1
15 -2 -12 105.222 59.88 2
-15 2 12 165.837 84.6982 1
-14 -2 12 -13.418 63.4789 1
14 -2 -12 15.9881 45.9842 2
-14 2 12 163.188 75.6381 1
14 2 -12 31.6825 85.3889 1
-13 -2 12 408.662 75.2358 1
13 -2 -12 365.729 51.8899 2
-13 2 12 334.394 73.6526 1
13 2 -12 435.803 94.7184 1
-12 -2 12 195.117 62.088 1
12 2 -12 250.69 75.0109 1
-12 2 12 196.412 58.0718 1
-11 -2 12 653.192 79.4409 1
11 2 -12 520.475 69.5274 2
11 2 -12 544.678 78.7382 1
-11 2 12 509.876 75.7501 1
-10 -2 12 313.301 58.0897 1
10 2 -12 233.095 42.9846 2
10 2 -12 247.318 51.7636 1
-10 2 12 202.463 51.419 1
9 -2 -12 68.2387 20.4767 2
-9 -2 12 78.2729 16.6226 3
-9 -2 12 103.893 36.2106 1
-9 2 12 92.2934 43.3013 1
9 2 -12 107.193 33.8827 2
9 2 -12 117.781 45.7886 1
8 -2 -12 -3.0353 16.245 2
-8 -2 12 -7.3762 11.7152 3
-8 -2 12 48.1869 32.6408 1
-8 2 12 -12.828 37.8488 1
8 2 -12 3.85068 32.1035 1
8 2 -12 38.7264 26.1598 2
7 -2 -12 1006.77 45.7413 2
-7 -2 12 960.973 78.0061 1
-7 -2 12 998.599 38.1655 3
7 2 -12 969.545 76.9995 1
7 2 -12 1078.23 67.2473 2
-7 2 12 980.531 83.8081 1
6 -2 -12 742.103 36.8772 2
-6 -2 12 741.149 30.8779 3
6 2 -12 724.18 58.3024 2
-6 2 12 784.805 110.145 1
5 -2 -12 1265.14 46.4293 2
-5 -2 12 1255.2 42.052 3
-5 -2 12 1203.98 78.0326 1
5 2 -12 1265.46 72.1282 2
-5 2 12 1278.79 51.699 3
-5 2 12 1236.39 84.2175 1
-4 -2 12 511.759 24.2919 3
-4 -2 12 497.693 55.7041 1
4 -2 -12 514.336 28.3108 2
-4 2 12 539.186 61.1765 1
4 2 -12 446.034 48.8398 2
-3 -2 12 24.0216 24.0719 1
-3 -2 12 94.2295 12.8595 3
3 -2 -12 93.6129 15.0475 2
3 2 -12 59.1274 23.5153 2
-2 -2 12 138.44 30.805 1
2 -2 -12 170.493 21.8149 2
2 2 -12 157.077 32.8213 2
-1 -2 12 838.566 61.7469 1
-1 -2 12 772.588 52.418 2
1 -2 -12 792.245 38.0164 2
-1 2 12 743.722 34.6153 2
1 2 -12 725.279 57.2387 2
0 -2 12 719.905 55.0308 1
0 -2 12 744.919 53.4895 2
0 2 -12 671.133 56.1458 2
0 2 12 744.042 37.5816 2
1 -2 12 1783.5 82.6685 2
1 -2 12 1680.14 82.5764 1
1 2 12 1879.92 69.0815 2
-1 2 -12 1728.11 89.8445 2
2 -2 12 489.827 50.8261 1
2 -2 12 597 54.1906 2
2 2 12 620.166 45.3773 2
-2 2 -12 618.083 58.1062 2
3 -2 12 446.249 50.0898 1
3 2 12 460.247 44.0309 2
4 -2 12 118.978 28.7195 1
4 -2 12 111.003 33.7114 2
-4 2 -12 65.7439 30.5871 2
4 2 12 98.4041 27.5965 2
5 -2 12 542.173 64.5396 2
-5 2 -12 602.743 64.3449 2
5 2 12 531.723 57.0337 2
-5 2 -12 616.47 39.3486 3
6 -2 12 510.037 64.0994 2
6 2 12 611.522 63.7788 2
-6 2 -12 485.099 59.7237 2
-6 2 -12 578.323 48.5028 3
7 -2 12 1404.59 102.201 2
7 2 12 1310.71 91.9398 2
-7 2 -12 1406.58 94.0448 2
8 -2 12 561.302 74.1869 2
-8 -2 -12 425.976 24.6444 3
-8 2 -12 605.351 73.2477 2
8 2 12 679.991 82.3708 2
9 -2 12 102.153 59.2862 2
-9 2 -12 227.861 59.8471 2
9 2 12 49.2938 50.9819 2
-10 -2 -12 -14.21 17.9277 3
10 -2 12 4.53816 60.6064 2
10 -2 12 -0.5396 35.8033 1
10 2 12 8.07023 58.4169 2
10 2 12 -1.0697 41.0363 1
-11 -2 -12 139.037 23.1486 3
11 -2 12 147.72 77.4538 2
11 2 12 211.632 72.0945 2
11 2 12 209.408 58.2024 1
12 -2 12 436.88 61.4411 1
-12 -2 -12 421.44 39.9874 3
12 2 12 323.824 72.2717 1
12 2 12 340.803 88.2723 2
-13 -2 -12 874.118 52.3684 3
-16 -3 12 486.719 48.6614 3
-16 3 12 386.348 112.265 1
-15 -3 12 88.3488 31.0104 3
-15 3 12 46.0057 89.5799 1
14 -3 -12 792.341 85.8414 2
-14 -3 12 785.327 55.4477 3
-14 3 12 889.13 105.794 1
-13 -3 12 -22.25 61.4774 1
13 -3 -12 2.41144 38.6338 2
-13 -3 12 35.1096 23.3529 3
13 3 -12 16.4439 80.5045 1
-13 3 12 48.9122 67.8782 1
12 -3 -12 94.6746 32.1837 2
-12 -3 12 -51.088 51.8752 1
-12 -3 12 -18.152 18.362 3
12 3 -12 52.0905 70.2814 1
12 3 -12 -0.355 45.5202 2
-12 3 12 75.2148 66.608 1
-11 -3 12 -49.283 45.6598 1
-11 -3 12 4.22397 18.0147 3
11 -3 -12 -30.335 24.3698 2
11 3 -12 -11.078 42.616 2
-11 3 12 30.5839 56.7191 1
11 3 -12 -19.293 57.7777 1
10 -3 -12 624.731 39.43 2
10 -3 -12 477.192 37.6526 2
-10 -3 12 503.225 66.3932 1
-10 -3 12 548.376 38.1607 3
10 3 -12 618.869 78.2831 1
-10 3 12 578.491 75.4471 1
10 3 -12 574.433 73.6277 2
-9 -3 12 25.4722 15.6114 3
-9 -3 12 116.214 46.8514 1
9 3 -12 72.8434 48.3749 1
9 3 -12 -43.589 31.3885 2
-9 3 12 39.0086 46.6399 1
-8 -3 12 1525.41 57.805 3
-8 -3 12 1652.42 101.469 1
8 3 -12 1507.15 100.803 1
-8 3 12 1757.68 109.69 1
8 3 -12 1490.35 90.0544 2
-7 -3 12 44.5912 37.4424 1
7 3 -12 -2.5976 33.8004 1
7 3 -12 8.99749 29.9942 2
-7 3 12 8.09133 35.9705 1
-6 -3 12 301.439 48.5111 1
-6 -3 12 253.21 24.1149 3
-6 3 12 281.348 47.6525 1
6 3 -12 211.757 44.8993 1
6 3 -12 269.749 43.2106 2
-5 -3 12 18.6211 12.8745 3
5 3 -12 46.7364 29.2794 2
-5 3 12 47.8455 30.5727 3
-5 3 12 20.7841 35.5634 1
-4 -3 12 799.143 35.3036 3
-4 -3 12 768.515 64.2795 1
-4 3 12 784.316 42.6573 3
4 3 -12 739.097 64.4364 2
-4 3 12 794.454 97.6758 1
-3 -3 12 32.5754 13.6196 3
-3 -3 12 20.089 27.2702 1
-3 3 12 13.8553 17.5113 3
3 3 -12 74.5593 31.5658 2
-2 -3 12 2288.5 70.9354 3
-2 -3 12 2422.37 103.818 1
2 3 -12 2096.01 129.773 2
-1 -3 12 97.4901 17.3107 3
-1 -3 12 75.6019 28.1833 1
1 3 -12 54.8637 32.0539 2
0 -3 12 21.9874 24.3255 1
0 -3 12 5.33475 20.0593 2
0 3 -12 -26.683 24.1181 2
1 -3 12 1.05366 24.4359 1
1 -3 12 19.3411 22.5656 2
-1 3 -12 -25.681 28.6231 2
-1 3 -12 14.7284 13.7493 3
1 3 12 -12.823 14.8934 2
2 -3 12 808.379 60.4176 1
2 -3 12 986.379 67.9503 2
2 3 12 871.513 50.0742 2
-2 3 -12 977.884 73.8728 2
-2 3 -12 927.36 37.5208 3
3 -3 12 38.7641 27.897 1
3 -3 12 -21.243 28.1909 2
-3 3 -12 -44.209 29.6189 2
-3 3 -12 21.4304 19.7145 3
3 3 12 22.3468 21.465 2
4 -3 12 1291.07 70.7511 1
4 -3 12 1213.26 84.3421 2
-4 3 -12 1168.59 86.0731 2
4 3 12 1226.63 67.845 2
5 -3 12 -7.4209 35.1564 2
5 -3 12 20.0525 27.8012 1
-5 3 -12 11.3926 38.7169 2
5 3 12 28.1918 31.6211 2
6 -3 12 104.152 32.2332 1
-6 -3 -12 224.728 21.4247 3
6 -3 12 157.743 45.5197 2
6 3 12 206.401 45.3673 2
-6 3 -12 187.831 49.256 2
7 -3 12 4.55953 42.546 2
-7 -3 -12 10.1087 13.8439 3
7 -3 12 24.6073 31.4558 1
-7 3 -12 -14.163 42.2955 2
8 -3 12 558.97 64.8633 1
8 -3 12 687.376 87.5822 2
-8 -3 -12 670.398 34.388 3
-8 3 -12 627.176 80.0066 2
8 3 12 757.007 88.8065 2
9 -3 12 -6.5674 38.4962 1
-9 -3 -12 6.09062 20.253 3
9 -3 12 26.3073 29.4496 1
9 -3 12 5.04605 60.0508 2
9 3 12 -3.3506 41.5154 1
9 3 12 25.7102 53.0747 2
-9 3 -12 8.16625 56.9282 2
10 -3 12 1039.26 136.503 2
-10 -3 -12 1074.55 50.4838 3
10 -3 12 1204.06 69.6462 1
-10 3 -12 886.045 122.015 2
10 3 12 1075.69 106.157 1
10 3 12 1202.61 127.052 2
-11 -3 -12 -4.165 23.4554 3
11 -3 12 45.4819 42.6855 1
11 3 12 144.255 65.6236 1
11 3 12 16.8435 77.8041 2
-12 -3 -12 173.345 31.5706 3
12 3 12 92.8415 99.7135 2
-13 -3 -12 17.3205 31.8317 3
-15 -4 12 87.3108 34.7475 3
-15 4 12 41.3056 100.545 1
-14 -4 12 32.5892 32.631 3
-14 4 12 -41.652 86.6233 1
-13 -4 12 387.95 42.1495 3
-13 4 12 301.301 89.8935 1
-12 -4 12 203.243 35.0119 3
-12 -4 12 254.204 66.9466 1
12 4 -12 183.891 68.9384 2
12 4 -12 164.334 85.9254 1
-12 4 12 182.64 77.3244 1
-11 -4 12 543.058 79.7688 1
-11 -4 12 581.916 46.0975 3
11 4 -12 645.028 103.416 1
11 4 -12 530.352 77.9425 2
-11 4 12 523.368 83.7417 1
-10 -4 12 99.4116 23.1523 3
-10 -4 12 145.442 53.9213 1
10 4 -12 101.555 46.6422 2
10 4 -12 83.4017 63.6009 1
-10 4 12 74.363 61.1212 1
-9 -4 12 80.2524 45.8979 1
-9 -4 12 58.3975 21.1156 3
-9 4 12 147.476 62.7034 1
9 4 -12 59.7087 44.7841 2
9 4 -12 28.1411 57.2641 1
-8 -4 12 16.843 42.4372 1
-8 -4 12 3.65674 18.9122 3
8 4 -12 26.2815 47.3626 1
-8 4 12 -63.403 47.8615 1
8 4 -12 13.4767 39.0312 2
-7 -4 12 1100.41 86.2857 1
-7 -4 12 955.584 47.0731 3
7 4 -12 826.056 90.9392 1
7 4 -12 1164.29 84.4372 2
-7 4 12 853.905 97.0039 1
-6 -4 12 550.538 69.7993 1
-6 -4 12 395.73 33.0983 3
-6 4 12 315.922 58.6688 1
6 4 -12 386.729 57.5796 1
6 4 -12 320.686 51.3772 2
-5 -4 12 1132.7 83.099 1
-5 -4 12 1059.67 49.3738 3
5 4 -12 1098.04 82.7637 2
5 4 -12 902.669 83.2373 1
-5 4 12 1126.19 93.0483 1
-4 -4 12 246.433 32.1239 3
-4 -4 12 213.958 60.9807 1
4 4 -12 139.795 36.0542 2
-3 -4 12 128.829 35.6737 1
-3 -4 12 132.233 20.3698 3
3 4 -12 87.5397 34.3631 2
-2 -4 12 32.922 17.5063 3
-2 -4 12 -36.734 28.0729 1
2 4 -12 -58.392 32.0122 2
-1 -4 12 601.916 37.5236 3
-1 -4 12 569.597 58.9495 1
1 4 -12 709.51 66.3491 2
-1 4 12 556.023 38.566 3
0 -4 12 392.743 52.3297 2
0 -4 12 262.402 38.1446 1
0 4 -12 174.01 42.2323 2
1 -4 12 2274.68 99.7311 1
1 -4 12 2539.73 112.927 2
-1 4 -12 2585.15 120.75 2
2 -4 12 146.122 38.5164 2
2 -4 12 120.996 29.9632 1
2 4 12 183.555 26.0904 2
-2 4 -12 155.408 42.1413 2
-3 -4 -12 196.631 22.7098 3
3 -4 12 155.524 40.3837 2
3 -4 12 240.765 35.8492 1
-3 4 -12 168.683 49.4535 2
3 4 12 209.953 32.5383 2
4 -4 12 26.2116 37.0175 2
-4 -4 -12 14.7114 15.454 3
4 -4 12 -12.524 28.5142 1
-4 4 -12 32.2032 43.5755 2
4 4 12 -28.767 27.1849 2
5 -4 12 487.577 53.9377 1
-5 -4 -12 482.313 31.9763 3
5 -4 12 472.894 63.8288 2
5 4 12 654.842 64.9974 2
-5 4 -12 580.539 75.215 2
6 -4 12 163.499 50.696 2
-6 -4 -12 187.277 22.9867 3
6 -4 12 234.164 34.1558 1
6 4 12 163.578 43.6266 2
-6 4 -12 160.15 53.6355 2
7 -4 12 1169.63 116.45 2
7 -4 12 1201.23 68.1009 1
-7 4 -12 1421.5 115.723 2
-8 -4 -12 373.327 37.9985 3
8 -4 12 262.757 67.0887 2
8 -4 12 275.086 29.2317 1
8 -4 12 249.137 36.7249 1
8 4 12 250.35 60.6092 2
-8 4 -12 128.462 71.6037 2
9 -4 12 396.524 81.5212 2
-9 -4 -12 268.26 33.0854 3
-9 4 -12 242.245 83.7058 2
9 4 12 303.427 60.9735 1
9 4 12 339.94 74.0064 2
-10 -4 -12 -4.6827 26.4806 3
10 4 12 -3.2163 74.6604 2
-11 -4 -12 420.322 42.0452 3
11 4 12 248.309 93.5806 2
-12 -4 -12 39.7644 38.3385 3
12 4 12 -79.854 117.006 2
-13 -5 12 96.865 32.0795 3
-13 5 12 133.314 96.1701 1
-12 5 12 151.546 92.099 1
-11 -5 12 29.5911 26.9551 3
-11 -5 12 115.647 68.6507 1
-11 5 12 67.5212 79.0591 1
11 5 -12 37.7029 91.7501 1
-10 -5 12 350.002 38.4703 3
-10 -5 12 264.674 64.9806 1
-10 5 12 188.223 77.7772 1
10 5 -12 426.667 95.0198 1
10 5 -12 451.746 81.5757 2
-9 -5 12 694.959 86.2982 1
-9 -5 12 501.952 46.2355 3
-9 5 12 1035.28 128.403 1
9 5 -12 583.966 96.5905 1
9 5 -12 586.996 79.1508 2
-8 -5 12 305.165 59.2944 1
-8 -5 12 472.512 43.2222 3
-8 5 12 445.947 79.3459 1
8 5 -12 500.132 76.5849 1
8 5 -12 713.867 92.4503 2
-7 -5 12 323.545 64.564 1
-7 -5 12 335.965 38.1345 3
-7 5 12 220.179 66.9567 1
7 5 -12 236.521 57.1187 2
7 5 -12 348.534 74.1912 1
-6 -5 12 48.37 39.1842 1
-6 -5 12 -11.714 18.4543 3
-6 5 12 36.9491 54.9775 1
6 5 -12 100.939 53.5693 1
6 5 -12 54.8842 51.2824 2
-5 -5 12 122.431 43.0927 1
-5 -5 12 157.375 28.3366 3
-5 5 12 262.778 62.2551 1
5 5 -12 155.165 49.5926 2
5 5 -12 196.587 47.9193 1
-4 -5 12 256.147 31.7516 3
-4 -5 12 246.506 43.9025 1
4 5 -12 223.788 50.8168 2
4 5 -12 351.021 54.8759 1
-3 -5 12 779.307 49.0978 3
-3 -5 12 767.962 99.5455 1
3 5 -12 784.75 86.1901 2
-2 -5 12 737.479 49.2132 3
-2 -5 12 709.147 66.6748 1
2 5 -12 717.777 81.7585 2
-1 -5 12 548.524 45.9023 3
-1 -5 12 622.281 61.0872 1
1 5 -12 612.235 80.4819 2
0 -5 12 20.9228 29.4667 1
0 5 -12 72.0635 47.5291 2
1 -5 12 -11.433 28.7409 1
1 -5 12 -3.8437 32.109 2
-1 5 -12 114.341 55.1083 2
2 -5 12 214.282 51.0245 2
2 -5 12 244.645 34.1025 1
-2 5 -12 251.051 62.1998 2
-3 -5 -12 837.163 56.719 3
3 -5 12 1108.43 91.719 2
3 -5 12 893.945 60.2844 1
-3 5 -12 881.362 103.29 2
3 5 12 952.502 54.0724 2
4 -5 12 597.852 50.9241 1
-4 -5 -12 707.611 52.5807 3
4 -5 12 456.641 63.6583 2
-4 5 -12 631.349 78.4003 2
4 5 12 598.355 60.8481 2
-5 -5 -12 535.145 47.2959 3
5 -5 12 651.188 79.5354 2
-5 5 -12 444.056 76.5517 2
5 5 12 516.785 70.4401 2
6 -5 12 120.562 56.3066 2
-6 -5 -12 93.5593 27.0583 3
-6 5 -12 49.4777 68.3762 2
6 5 12 69.1394 47.152 2
7 -5 12 10.8057 65.2136 2
-7 -5 -12 18.5131 27.3122 3
-7 5 -12 -177.6 69.9524 2
7 5 12 81.9368 53.2364 2
-8 -5 -12 168.107 32.6074 3
8 5 12 168.614 68.8246 2
-9 -5 -12 347.282 41.8082 3
9 5 12 351.495 86.493 2
-10 -5 -12 330.768 44.1194 3
10 5 12 351.836 98.556 2
-12 -6 12 612.977 58.3642 3
-11 -6 12 -1.667 29.6575 3
-11 6 12 11.1181 97.4375 1
-10 -6 12 388.551 45.9283 3
-10 6 12 430.065 101.003 1
-9 -6 12 10.0002 29.1389 3
-9 -6 12 82.2422 63.7317 1
-9 6 12 93.319 85.3282 1
9 6 -12 27.0898 90.5762 1
-8 -6 12 38.4546 28.69 3
-8 -6 12 151.26 62.595 1
8 6 -12 62.504 84.2168 1
-8 6 12 24.2605 79.2783 1
-7 -6 12 -41.133 51.2321 1
-7 -6 12 52.7722 27.0993 3
-7 6 12 75.6426 75.2321 1
7 6 -12 108.533 69.1041 2
7 6 -12 89.6404 77.3339 1
-6 -6 12 734.837 57.0629 3
-6 -6 12 899.594 95.3301 1
6 6 -12 633.317 81.5624 2
6 6 -12 962.842 125.174 1
-6 6 12 998.517 128.496 1
-5 -6 12 95.3514 48.4955 1
-5 -6 12 55.2114 29.4962 3
5 6 -12 -4.6441 58.2842 1
-5 6 12 157.757 66.6572 1
5 6 -12 -88.643 54.1839 2
-4 -6 12 557.101 51.6583 3
-4 -6 12 599.288 78.6967 1
4 6 -12 488.358 69.5819 2
4 6 -12 534.772 74.4552 1
-3 -6 12 21.8346 28.5161 3
-3 -6 12 -3.8386 39.7026 1
3 6 -12 56.65 55.9509 2
-2 -6 12 106.565 29.5029 3
-2 -6 12 36.7585 37.2848 1
2 6 -12 77.2246 63.0638 2
-1 -6 12 13.3727 35.6905 1
1 6 -12 -24.66 51.7721 2
0 -6 12 926.486 69.1238 1
0 6 -12 1067.91 115.805 2
1 -6 12 14.4065 30.8812 1
-1 6 -12 56.9393 61.0474 2
2 -6 12 660.579 50.9385 1
2 -6 12 718.805 94.1616 2
-2 6 -12 839.754 103.605 2
3 -6 12 -36.774 51.6028 2
-3 -6 -12 11.2842 30.6958 3
-3 6 -12 19.0305 65.9282 2
-4 -6 -12 156.24 35.6948 3
4 -6 12 52.9883 61.9816 2
4 6 12 78.2952 39.1531 2
-4 6 -12 220.695 78.4809 2
5 -6 12 134.98 71.6132 2
-5 -6 -12 86.8488 35.758 3
-5 6 -12 97.5799 89.5765 2
5 6 12 18.9375 45.6828 2
-6 -6 -12 834.11 64.2923 3
6 6 12 769.92 77.3677 2
-7 -6 -12 37.9105 35.66 3
7 6 12 119.111 70.0718 2
-8 -6 -12 751.018 67.5512 3
-9 -7 12 814.189 75.7036 3
-8 -7 12 163.231 39.9398 3
-8 -7 12 55.5298 79.0939 1
-8 7 12 47.4499 113.08 1
8 7 -12 -152.88 113.977 1
-7 -7 12 307.506 45.075 3
-7 -7 12 357.648 78.7626 1
7 7 -12 357.248 110.469 1
-7 7 12 280.994 112.383 1
-6 -7 12 -67.444 32.4122 3
-6 -7 12 -9.3872 63.2253 1
6 7 -12 37.1959 95.2468 1
-6 7 12 -159.56 92.521 1
-5 -7 12 132.437 55.5574 1
-5 -7 12 149.468 40.5587 3
-5 7 12 211.97 93.5771 1
5 7 -12 215.121 86.1212 1
-4 -7 12 -66.736 49.5634 1
-4 -7 12 37.206 35.8963 3
-3 -7 12 766.941 85.8551 1
-3 -7 12 833.9 69.8652 3
-2 -7 12 57.3113 45.8059 1
-2 -7 12 71.4747 36.0187 3
-1 -7 12 609.97 70.3006 1
0 -7 12 58.5977 36.186 1
-4 -7 -12 272.724 45.6997 3
-5 -7 -12 354.603 54.1408 3
-6 -7 -12 18.7481 47.861 3
-15 0 13 128.031 87.3402 1
-14 0 13 -37.703 70.6222 1
-13 0 13 540.799 82.3287 1
-12 0 13 70.0983 57.4353 1
-11 0 13 1169.26 106.623 1
10 0 -13 20.0276 30.6001 2
-10 0 13 -44.419 41.8066 1
-9 0 13 41.0942 40.1881 1
9 0 -13 22.3277 25.5437 2
8 0 -13 0.00232 24.1493 2
-8 0 13 -44.493 35.4097 1
7 0 -13 1412.38 69.156 2
-7 0 13 1280.24 89.396 1
-6 0 13 32.7913 31.3068 1
6 0 -13 -2.2014 20.1693 2
5 0 -13 1837.94 78.4898 2
4 0 -13 -21.638 19.6224 2
-4 0 13 5.42231 26.8953 1
3 0 -13 11.4333 21.9872 2
-3 0 13 4.03655 27.3231 1
2 0 -13 -5.7968 19.1911 2
-2 0 13 -18.244 26.2019 1
1 0 -13 1359.45 68.504 2
-1 0 13 1490.67 65.2975 2
-1 0 13 1449.13 82.6947 1
0 0 -13 0.97753 21.1496 2
0 0 13 5.12273 17.8511 2
-1 0 -13 1968.93 87.223 2
1 0 13 1885.07 82.081 2
2 0 13 -4.0886 21.7082 2
-2 0 -13 11.983 23.2394 2
3 0 13 19.4709 23.9692 2
-3 0 -13 -21.654 22.5772 2
-4 0 -13 -5.1849 28.0695 2
4 0 13 -38.706 24.277 2
-5 0 -13 1454.46 115.906 2
-6 0 -13 10.9079 31.6509 2
6 0 13 -48.51 32.9232 2
7 0 13 1648.48 103.216 2
8 0 13 -3.115 43.94 2
9 0 13 57.8076 51.4335 2
10 0 13 42.0569 58.7338 2
11 0 13 521.09 90.4133 2
11 0 13 540.753 66.2596 1
12 0 13 -12.008 61.4858 1
13 0 13 1007.5 108.967 1
-15 1 13 89.6173 90.1592 1
-14 -1 13 671.134 97.0786 1
14 1 -13 529.79 98.3389 1
-14 1 13 570.88 98.2886 1
-13 -1 13 -37.517 61.8565 1
-13 1 13 176.121 68.9518 1
13 1 -13 160.83 71.9223 1
-12 -1 13 -4.7191 54.9642 1
12 1 -13 131.469 61.4044 1
-12 1 13 -2.1352 61.2913 1
11 -1 -13 86.3809 30.7871 2
-11 -1 13 102.038 51.1685 1
11 1 -13 130.082 40.7284 2
11 1 -13 93.419 51.7482 1
-11 1 13 96.5531 59.0177 1
10 -1 -13 881.598 60.0676 2
-10 -1 13 781.294 90.2535 1
-10 1 13 852.167 97.0544 1
10 1 -13 841.786 93.1067 1
10 1 -13 723.021 70.697 2
9 -1 -13 571.556 48.5937 2
-9 -1 13 649.699 79.9073 1
-9 1 13 458.489 65.3935 1
8 -1 -13 819.657 52.8204 2
-8 -1 13 888.927 87.9482 1
-8 1 13 934.041 90.584 1
8 1 -13 932.737 65.6023 2
7 -1 -13 105.893 24.3025 2
-7 -1 13 179.842 39.2416 1
-7 1 13 79.2962 41.5109 1
7 1 -13 151.911 30.3556 2
-6 -1 13 5.77719 9.2935 3
6 -1 -13 -18.905 18.2547 2
-6 -1 13 -5.5752 28.1816 1
6 1 -13 -5.5007 22.2168 2
-6 1 13 -2.1536 33.3708 1
-5 -1 13 127.751 54.154 1
5 -1 -13 165.421 24.3956 2
-5 1 13 188.277 44.3037 1
5 1 -13 181.935 31.8963 2
-4 -1 13 1505.19 89.3107 1
4 -1 -13 1521.03 64.2223 2
4 1 -13 1568.65 77.2627 2
-3 -1 13 455.428 57.7342 1
3 -1 -13 372.064 36.8664 2
-3 1 13 421.48 56.7802 1
3 1 -13 461.855 47.4163 2
-2 -1 13 1096.21 75.0573 1
2 -1 -13 1207.75 57.2117 2
-2 1 13 1340.45 80.0473 1
2 1 -13 1211.19 67.5014 2
-1 -1 13 260.912 35.2337 2
-1 -1 13 285.321 45.2999 1
1 -1 -13 226.97 29.957 2
1 1 -13 321.915 42.6749 2
-1 1 13 219.353 29.2197 2
0 -1 13 22.3676 21.1207 2
0 -1 13 -3.9638 23.0505 1
0 -1 -13 8.93904 19.2734 2
0 1 -13 22.302 25.6711 2
0 1 13 5.64868 16.4865 2
-1 -1 -13 186.825 28.3076 2
1 -1 13 240.987 40.9253 1
1 -1 13 175.579 28.3853 2
-1 1 -13 356.539 46.4595 2
1 1 13 212.328 30.8247 2
2 -1 13 903.019 64.2867 2
-2 -1 -13 877.34 55.796 2
-2 1 -13 820.966 64.8294 2
2 1 13 955.841 57.254 2
3 -1 13 402.101 52.7593 2
-3 -1 -13 384.192 44.2232 2
-3 1 -13 410.031 53.6598 2
3 1 13 403.164 47.4584 2
4 -1 13 1471.1 85.6601 2
-4 -1 -13 1396.53 72.2402 2
-4 1 -13 1381.41 82.3312 2
4 1 13 1258.37 78.6511 2
5 -1 13 326.364 53.3809 2
-5 1 -13 240.663 42.659 2
5 1 13 288.814 43.8992 2
6 -1 13 4.55083 37.9839 2
6 1 13 73.2651 36.2887 2
-6 1 -13 70.0223 36.8527 2
7 -1 13 154.382 53.2144 2
7 1 13 102.859 38.6246 2
-7 1 -13 162.282 45.078 2
8 -1 13 806.838 95.0737 2
8 1 13 645.602 86.3189 2
-8 1 -13 674.082 83.3609 2
9 -1 13 343.805 68.1413 2
9 1 13 391.568 68.2487 2
10 -1 13 665.011 95.5514 2
10 -1 13 756.244 75.0551 1
10 1 13 727.144 90.4465 2
11 -1 13 152.347 50.6381 1
11 -1 13 39.8473 73.3481 2
11 1 13 172.776 82.503 2
11 1 13 25.7853 55.9132 1
12 -1 13 -31.645 55.8048 1
12 1 13 81.1935 67.8419 1
12 1 13 135.006 97.413 2
13 -1 13 10.0845 70.837 1
13 1 13 59.883 138.826 1
15 -2 -13 54.8461 65.1273 2
-15 2 13 -62.039 90.9092 1
14 -2 -13 73.3429 57.6856 2
-14 -2 13 89.2021 86.5576 1
-14 2 13 203.466 80.3197 1
13 -2 -13 140.606 43.6358 2
-13 -2 13 141.225 75.5468 1
13 2 -13 182.956 84.4407 1
-13 2 13 97.3809 71.331 1
13 2 -13 249.096 63.2335 2
-12 -2 13 825.733 95.4802 1
12 2 -13 698.641 75.0276 2
-12 2 13 771.656 94.2137 1
12 2 -13 784.666 98.0379 1
-11 -2 13 282.246 63.8942 1
11 -2 -13 298.46 37.9696 2
11 2 -13 315.309 55.0738 2
11 2 -13 326.651 70.7458 1
-11 2 13 385.168 73.8877 1
-10 -2 13 51.5929 17.4749 3
10 -2 -13 108.746 25.6708 2
-10 -2 13 54.4352 48.7782 1
-10 2 13 73.1348 53.834 1
10 2 -13 132.546 41.1509 2
10 2 -13 17.3466 50.138 1
-9 -2 13 24.9671 15.7839 3
9 -2 -13 33.1081 19.7881 2
-9 -2 13 -11.349 39.2831 1
9 2 -13 3.4756 31.4917 2
-9 2 13 22.094 45.1605 1
9 2 -13 15.059 43.6584 1
-8 -2 13 290.182 53.2521 1
-8 -2 13 235.035 24.0097 3
8 -2 -13 277.49 34.9862 2
8 2 -13 231.246 42.2835 2
8 2 -13 283.886 50.9468 1
-8 2 13 211.673 55.5901 1
-7 -2 13 442.426 27.1667 3
7 -2 -13 473.755 35.5175 2
-7 -2 13 505.721 67.664 1
7 2 -13 432.551 57.9481 2
-7 2 13 513.76 68.2893 1
6 -2 -13 1665.22 59.873 2
-6 -2 13 1717.08 53.7271 3
-6 -2 13 1663.47 101.634 1
-6 2 13 1811.33 105.514 1
-6 2 13 1623.29 66.4943 3
-5 -2 13 481.642 25.6191 3
5 -2 -13 504.809 31.4591 2
-5 -2 13 514.263 62.6427 1
-5 2 13 521.309 62.6036 1
5 2 -13 492.835 55.5735 2
-4 -2 13 388.255 23.2263 3
-4 -2 13 432.725 59.1857 1
4 -2 -13 387.168 28.4451 2
4 2 -13 386.118 49.201 2
-4 2 13 379.703 53.2334 1
-3 -2 13 83.9889 29.0395 1
3 -2 -13 41.4046 15.9542 2
3 2 -13 83.4202 28.5643 2
-3 2 13 80.6255 34.8279 1
2 -2 -13 736.8 37.8384 2
-2 -2 13 684.891 62.7717 1
2 2 -13 691.627 61.1343 2
-1 -2 13 955.702 59.9352 2
-1 -2 13 944.76 67.9004 1
1 -2 -13 905.787 42.872 2
1 2 -13 775.085 64.7755 2
-1 2 13 851.825 39.5025 2
0 -2 13 1207.67 75.1445 1
0 -2 -13 1314.61 54.0588 2
0 -2 13 1176.42 68.9878 2
0 2 -13 1301.04 77.7823 2
0 2 13 1197.32 51.6479 2
1 -2 13 974.882 68.4439 2
1 -2 13 962.809 66.4726 1
1 2 13 962.873 50.8367 2
2 -2 13 1019.66 68.6565 1
2 -2 13 976.386 67.5034 2
-2 2 -13 1029.05 73.1738 2
2 2 13 908.293 54.1901 2
3 -2 13 42.1278 28.7465 1
3 -2 13 6.95666 27.3539 2
-3 2 -13 40.2995 33.5228 2
3 2 13 18.7867 24.9606 2
4 -2 13 79.344 38.5591 2
4 -2 13 214.362 39.7037 1
4 2 13 121.692 34.9065 2
-4 2 -13 249.932 41.8832 2
5 -2 13 598.154 72.4492 2
5 2 13 406.648 51.7545 2
-5 2 -13 493.95 59.7015 2
6 -2 13 1341.65 97.7187 2
-6 2 -13 1185.17 91.4349 2
6 2 13 1396.33 86.0061 2
7 -2 13 655.096 79.5285 2
-7 2 -13 637.836 86.2794 2
7 2 13 654.869 77.6632 2
8 -2 13 430.934 75.8231 2
8 2 13 268.172 57.4798 2
-8 2 -13 357.939 60.2966 2
-9 -2 -13 57.7329 15.5484 3
9 -2 13 137.307 62.1615 2
9 2 13 37.5045 57.841 2
-9 2 -13 19.2033 57.3833 2
10 -2 13 52.1586 66.4351 2
-10 -2 -13 40.8137 21.9187 3
10 -2 13 34.0253 38.8899 1
10 2 13 16.9866 64.7113 2
10 2 13 24.3002 51.064 1
11 -2 13 279.7 50.9731 1
-11 -2 -13 255.37 26.821 3
11 2 13 115.134 65.5551 1
11 2 13 190.843 80.8401 2
-12 -2 -13 726.257 48.5594 3
12 -2 13 742.995 98.0771 1
12 2 13 664.337 128.837 2
-13 -2 -13 372.005 36.9118 3
-15 -3 13 926.783 62.3378 3
-15 3 13 518.347 117.386 1
-14 3 13 77.5957 88.2544 1
13 -3 -13 148.982 41.8282 2
-13 -3 13 225.08 77.8226 1
-13 -3 13 178.312 30.5605 3
-13 3 13 261.266 87.9311 1
13 3 -13 58.8972 105.063 1
13 3 -13 123.519 69.0137 2
-12 -3 13 -17.407 20.0137 3
12 -3 -13 18.4505 31.0724 2
12 -3 -13 -54.442 30.2795 2
-12 -3 13 3.45839 59.1595 1
12 3 -13 -139.68 76.9788 1
12 3 -13 26.6882 55.193 2
-12 3 13 123.607 77.2278 1
11 -3 -13 333.096 42.7247 2
11 -3 -13 377.554 42.8929 2
-11 -3 13 375.133 69.594 1
-11 -3 13 395.536 39.3334 3
11 3 -13 421.774 79.2579 1
11 3 -13 366.114 67.7311 2
-11 3 13 431.322 82.9254 1
-10 -3 13 -9.7585 51.3949 1
-10 -3 13 12.9973 17.2152 3
10 3 -13 174.413 60.6656 1
10 3 -13 -1.601 46.1132 2
-10 3 13 1.39664 57.4063 1
-9 -3 13 1131.02 49.8033 3
-9 -3 13 1078.54 100.636 1
9 3 -13 996.643 86.8354 2
-9 3 13 1146.27 113.757 1
9 3 -13 1019.15 104.672 1
-8 -3 13 -28.902 39.7759 1
-8 -3 13 26.7839 16.9485 3
-8 3 13 17.7246 47.5635 1
8 3 -13 -33.205 32.7156 2
8 3 -13 -0.6615 40.4708 1
-7 -3 13 518.414 66.8783 1
-7 3 13 425.631 65.6377 1
7 3 -13 390.595 49.8857 2
7 3 -13 425.332 58.521 1
-6 -3 13 16.1014 14.2434 3
-6 -3 13 91.1547 39.7258 1
6 3 -13 53.8801 33.5108 2
-6 3 13 -40.67 41.0381 1
-5 -3 13 159.993 19.3897 3
-5 -3 13 239.365 41.0252 1
-5 3 13 95.5328 29.7487 3
-5 3 13 156.116 49.9148 1
5 3 -13 162.192 35.6064 2
-4 -3 13 10.1611 13.0142 3
-4 -3 13 13.3748 34.0018 1
-4 3 13 24.4256 38.0171 1
4 3 -13 -17.962 28.3525 2
-3 -3 13 1574.82 53.582 3
-3 -3 13 1516.08 89.2667 1
3 3 -13 1542.06 89.318 2
-2 -3 13 -26.032 29.0978 1
-2 -3 13 -16.915 14.0528 3
2 3 -13 -0.7634 30.8734 2
-1 -3 13 669.261 62.2848 1
-1 -3 13 652.811 59.7755 2
1 3 -13 527.119 64.0744 2
0 -3 13 15.6808 28.7645 1
0 -3 13 -54.99 22.85 2
0 3 -13 6.03679 28.9132 2
0 3 13 7.44177 12.0647 2
1 -3 13 371.193 48.4081 2
1 -3 13 478.47 56.8212 1
-1 3 -13 459.389 63.1466 2
1 3 13 412.622 34.8439 2
-1 3 -13 412.503 25.8933 3
2 -3 13 -2.5924 32.8982 2
2 -3 13 -63.966 28.934 1
-2 3 -13 1.44966 15.2848 3
-2 3 -13 31.2607 32.1861 2
2 3 13 3.71902 22.6216 2
3 -3 13 1351.15 79.3326 1
3 -3 13 1292.46 87.0644 2
-3 3 -13 1309.21 90.1039 2
-3 3 -13 1260.98 49.2532 3
3 3 13 1348.02 69.2378 2
4 -3 13 -54.203 32.7184 1
4 -3 13 -21.055 37.7389 2
-4 3 -13 -13.908 36.4574 2
4 3 13 3.56701 28.3594 2
5 -3 13 442.686 61.4609 2
5 -3 13 390.504 47.5826 1
5 3 13 346.012 48.7903 2
-5 3 -13 458.717 63.1621 2
6 -3 13 -51.409 33.6568 1
6 -3 13 58.8146 49.465 2
-6 3 -13 16.4747 48.7165 2
6 3 13 23.4961 37.8203 2
7 -3 13 251.733 43.8081 1
7 -3 13 199.085 62.2908 2
7 3 13 291.916 54.301 2
-7 3 -13 247.248 61.9366 2
8 -3 13 29.8053 40.2047 1
-8 -3 -13 49.4995 17.2007 3
8 -3 13 61.4016 59.4869 2
-8 3 -13 -107.35 59.62 2
8 3 13 167.115 60.6114 2
-9 -3 -13 1096.54 77.5815 3
9 -3 13 1026.74 126.428 2
9 -3 13 1031.61 68.4347 1
9 -3 13 1035.12 87.306 1
9 3 13 1112.98 119.113 2
-9 3 -13 949.89 124.376 2
10 -3 13 54.2181 39.1418 1
10 -3 13 65.8551 55.8786 1
-10 -3 -13 0.19143 23.6636 3
10 3 13 -2.5218 54.9965 1
10 3 13 146.634 77.3964 2
-11 -3 -13 452.269 46.017 3
11 3 13 379.481 101.498 2
-12 -3 -13 -16.253 29.43 3
-14 -4 13 201.427 36.4821 3
-14 4 13 81.0508 97.6387 1
-13 -4 13 217.871 39.5031 3
-13 4 13 108.356 91.2019 1
-12 -4 13 579.498 51.9254 3
-12 -4 13 366.642 85.4669 1
-12 4 13 554.635 103.535 1
12 4 -13 459.905 83.3779 2
12 4 -13 899.048 158.86 1
-11 -4 13 114.125 62.3238 1
-11 -4 13 41.0502 22.6299 3
-11 4 13 60.6288 74.4295 1
11 4 -13 24.1628 58.7211 2
11 4 -13 96.7378 84.0282 1
-10 -4 13 237.754 30.8855 3
-10 -4 13 248.124 62.2658 1
-10 4 13 190.106 74.5783 1
10 4 -13 255.126 79.7523 1
10 4 -13 179.164 56.8733 2
-9 -4 13 11.4656 20.2683 3
-9 -4 13 -56.884 48.0866 1
9 4 -13 21.1575 49.2402 2
9 4 -13 -38.984 61.3581 1
-9 4 13 155.433 68.1829 1
-8 -4 13 545.045 40.7956 3
-8 -4 13 553.548 70.962 1
8 4 -13 617.903 83.3045 1
8 4 -13 648.746 84.5716 2
-8 4 13 542.92 78.585 1
-7 -4 13 150.315 22.845 3
-7 -4 13 112.499 50.6158 1
-7 4 13 69.0998 53.0692 1
7 4 -13 77.693 45.7483 2
7 4 -13 191.296 52.9784 1
-6 -4 13 1244.55 96.1931 1
-6 -4 13 1506.23 60.1676 3
6 4 -13 1319.36 99.7736 1
6 4 -13 1434.06 101.456 2
-6 4 13 1409.02 113.448 1
-5 -4 13 287.292 54.1694 1
-5 -4 13 305.65 34.6903 3
5 4 -13 224.448 43.9686 2
-5 4 13 305.288 60.2536 1
-4 -4 13 172.817 43.6748 1
4 4 -13 198.7 43.9625 2
-3 -4 13 -11.502 17.1416 3
3 4 -13 -3.3477 32.6795 2
-2 -4 13 154.513 38.0591 1
-2 -4 13 191.057 24.4831 3
-2 4 13 152.997 26.032 3
2 4 -13 106.057 39.4821 2
-1 -4 13 189.594 39.2754 1
1 4 -13 245.346 46.9088 2
0 -4 13 2471.21 108.348 1
0 -4 13 2370.26 113.809 2
0 4 -13 2534.05 124.995 2
1 -4 13 175.238 37.7281 1
1 -4 13 101.581 33.1193 2
-1 4 -13 177.833 46.4247 2
2 -4 13 496.752 61.4657 2
2 -4 13 429.74 59.217 1
2 4 13 488.566 39.7986 2
-2 4 -13 518.583 67.7498 2
3 -4 13 51.2139 39.4167 2
3 -4 13 -26.716 30.0933 1
3 4 13 2.96355 25.4777 2
-3 4 -13 108.182 48.9282 2
-4 -4 -13 95.4449 19.6419 3
4 -4 13 149.329 47.2178 2
4 -4 13 176.778 36.6074 1
4 4 13 139.855 33.8064 2
-4 4 -13 116.391 50.2257 2
5 -4 13 189.59 37.0949 1
5 -4 13 151.572 53.2928 2
-5 -4 -13 187.986 23.9055 3
5 4 13 204.148 43.8648 2
-5 4 -13 403.421 77.1293 2
-6 -4 -13 1286.38 52.1477 3
6 -4 13 1240.4 116.718 2
6 -4 13 1403.99 79.0377 1
-6 4 -13 1510.73 121.704 2
6 4 13 1357.57 95.6561 2
-7 -4 -13 277.903 34.9363 3
7 -4 13 270.451 41.7675 1
7 -4 13 183.963 62.6429 2
7 4 13 281.13 59.8576 2
-7 4 -13 288.724 78.6003 2
-8 -4 -13 513.739 46.8088 3
8 -4 13 653.158 73.2534 1
8 -4 13 638.467 51.4617 1
8 -4 13 482.542 89.0096 2
-8 4 -13 556.995 94.1629 2
8 4 13 697.6 83.2585 2
-9 -4 -13 -52.71 27.436 3
9 4 13 31.1156 69.695 2
-10 -4 -13 141.31 31.8397 3
10 4 13 144.94 86.7011 2
-11 -4 -13 73.3189 35.6563 3
11 4 13 -20.419 94.7503 2
-13 -5 13 113.61 35.3258 3
-13 5 13 170.975 110.677 1
-12 -5 13 9.99724 28.7101 3
-12 5 13 64.9287 100.547 1
-11 -5 13 83.0399 31.8963 3
-11 5 13 80.2258 90.5002 1
-10 -5 13 619.112 85.5016 1
-10 -5 13 628.161 51.6247 3
10 5 -13 513.285 103.556 1
-10 5 13 709.787 103.028 1
10 5 -13 475.38 123.023 2
-9 -5 13 471.956 74.9347 1
-9 -5 13 447.449 45.5319 3
9 5 -13 509.692 99.879 1
-9 5 13 459.683 91.2171 1
9 5 -13 548.763 83.6593 2
-8 -5 13 377.724 69.4142 1
-8 -5 13 268.996 33.3697 3
8 5 -13 415.976 84.0244 1
-8 5 13 320.853 83.1552 1
8 5 -13 289.759 68.7014 2
-7 -5 13 106.957 29.3043 3
-7 -5 13 68.7579 49.3763 1
-7 5 13 153.36 71.8288 1
7 5 -13 99.7903 61.9559 1
7 5 -13 85.1643 53.6919 2
-6 -5 13 73.3184 51.4525 1
-6 -5 13 74.9667 25.459 3
6 5 -13 93.1361 59.4397 2
-6 5 13 62.302 62.1633 1
6 5 -13 82.171 55.2406 1
-5 -5 13 196.855 48.9639 1
-5 -5 13 89.733 25.6188 3
-5 5 13 215.22 62.9348 1
5 5 -13 41.1755 50.4269 1
5 5 -13 100.428 53.7634 2
-4 -5 13 662.095 78.5229 1
-4 -5 13 664.54 48.4511 3
4 5 -13 464.781 64.8756 2
-3 -5 13 472.408 58.0821 1
-3 -5 13 522.113 45.5928 3
3 5 -13 442.762 68.1472 2
-2 -5 13 721.425 51.0646 3
2 5 -13 730.106 92.7728 2
-1 -5 13 236.847 44.3287 1
1 5 -13 152.653 49.6758 2
0 -5 13 20.7651 33.9754 1
0 5 -13 -16.201 48.0143 2
1 -5 13 144.256 36.507 1
1 -5 13 87.3654 42.2881 2
-1 5 -13 143.927 58.2057 2
2 -5 13 630.961 64.2411 1
2 -5 13 687.226 83.7254 2
-2 5 -13 665.466 87.5491 2
3 -5 13 354.254 68.1136 2
3 -5 13 496.733 61.461 1
-3 5 -13 550.143 82.8209 2
4 -5 13 680.012 61.8843 1
4 -5 13 827.519 104.279 2
-4 5 -13 886.917 99.8853 2
4 5 13 714.566 63.3753 2
-5 -5 -13 219.438 34.6828 3
5 -5 13 186.285 66.7467 2
5 -5 13 151.763 35.4639 1
5 5 13 90.7857 43.6957 2
-5 5 -13 161.2 68.9328 2
6 -5 13 82.5251 69.5526 2
-6 -5 -13 44.8271 30.0005 3
6 5 13 69.5794 53.3954 2
-6 5 -13 89.7231 77.3148 2
-7 -5 -13 72.8217 30.8744 3
7 5 13 39.6703 61.9659 2
-8 -5 -13 241.624 37.87 3
8 5 13 153.789 75.6333 2
-9 -5 -13 528.841 59.4351 3
9 5 13 672.877 102.434 2
-10 -5 -13 500.713 50.0517 3
10 5 13 491.503 112.481 2
-11 -6 13 583.963 56.4667 3
-11 6 13 584.095 132.329 1
-10 -6 13 3.87439 31.8279 3
-10 6 13 92.3287 104.305 1
-9 -6 13 -42.627 71.0606 1
-9 -6 13 -16.386 29.6009 3
-9 6 13 14.5892 98.2741 1
9 6 -13 -22.306 111.935 1
-8 -6 13 91.1526 63.2025 1
-8 -6 13 -6.9434 29.9809 3
-8 6 13 59.806 92.137 1
8 6 -13 111.182 95.7871 1
-7 -6 13 582.58 78.9642 1
-7 -6 13 561.399 57.7997 3
7 6 -13 531.968 99.7165 1
-7 6 13 681.205 109.041 1
-6 -6 13 37.3842 54.5572 1
-6 -6 13 95.8401 33.2643 3
6 6 -13 26.6031 77.7066 2
6 6 -13 101.452 77.1337 1
-6 6 13 -85.609 83.7651 1
-5 -6 13 807.074 98.7569 1
-5 -6 13 788.855 60.9246 3
5 6 -13 834.64 96.0567 1
-5 6 13 1068.18 144.597 1
5 6 -13 674.097 88.6283 2
-4 -6 13 -12.617 48.0984 1
-4 -6 13 -8.4982 32.1916 3
4 6 -13 61.2113 68.4432 2
-3 -6 13 5.45106 29.4251 3
-3 -6 13 38.0145 47.1962 1
3 6 -13 47.7583 64.5307 2
-2 -6 13 -16.633 32.0772 3
-2 -6 13 -18.881 42.642 1
2 6 -13 6.00405 64.3721 2
-1 -6 13 755.79 74.3966 1
1 6 -13 851.011 101.268 2
0 -6 13 37.8305 38.7967 1
0 6 -13 142.805 73.5298 2
1 -6 13 711.763 70.0625 1
-1 6 -13 877.276 109.455 2
2 -6 13 91.1689 35.4339 1
2 -6 13 30.1022 58.992 2
-2 6 -13 103.884 76.857 2
3 -6 13 -31.12 29.9152 1
3 -6 13 37.5897 57.6531 2
-3 6 -13 -102.28 82.8557 2
-4 -6 -13 10.8278 34.8327 3
-5 -6 -13 699.03 65.5785 3
-6 -6 -13 12.1161 39.6385 3
-7 -6 -13 867.188 74.1487 3
-8 -7 13 418.179 53.5164 3
-8 7 13 540.261 130.039 1
-7 -7 13 28.2528 71.7458 1
-7 -7 13 10.1583 35.9423 3
7 7 -13 60.1398 114.874 1
-7 7 13 23.2718 115.318 1
-6 -7 13 -42.963 64.371 1
-6 -7 13 -6.1565 36.6937 3
6 7 -13 -55.781 105.915 1
-6 7 13 -285.97 109.41 1
-5 -7 13 154.896 64.5376 1
-5 -7 13 4.04226 36.0363 3
-5 7 13 96.9693 104.086 1
-4 -7 13 704.893 69.3884 3
-4 -7 13 871.947 103.52 1
-3 -7 13 70.8723 55.8935 1
-3 -7 13 158.017 43.2079 3
-2 -7 13 669.229 72.1375 1
-14 0 14 599.855 100.938 1
-13 0 14 27.9618 70.6462 1
13 0 -14 -65.312 42.5457 2
-12 0 14 935.726 122.61 1
12 0 -14 961.098 84.3261 2
-11 0 14 -10.369 55.6555 1
11 0 -14 -23.613 33.586 2
10 0 -14 12.0644 30.6149 2
-10 0 14 115.681 52.6445 1
9 0 -14 32.0726 29.62 2
-9 0 14 11.8942 43.2169 1
-8 0 14 849.023 92.0168 1
8 0 -14 949.743 63.6196 2
-7 0 14 -44.292 37.5294 1
7 0 -14 -32.829 23.4266 2
-6 0 14 1782.95 109.689 1
6 0 -14 1820.71 82.7664 2
-5 0 14 16.1228 36.3268 1
5 0 -14 1.00946 22.0776 2
4 0 -14 340.871 44.6651 2
-4 0 14 471.674 62.2969 1
-3 0 14 19.6552 31.507 1
3 0 -14 9.72946 20.9174 2
2 0 -14 690.999 55.5032 2
-2 0 14 821.915 71.2238 1
1 0 -14 34.2178 25.2344 2
-1 0 14 34.9719 35.3491 1
0 0 14 1782.93 78.9555 2
0 0 -14 1795.56 83.6478 2
0 0 14 1723.17 121.248 1
-1 0 -14 -17.078 25.1342 2
1 0 14 1.49055 22.8423 2
-2 0 -14 501.259 54.628 2
2 0 14 650.524 57.1214 2
3 0 14 -31.884 26.6947 2
-3 0 -14 11.4409 27.9028 2
-4 0 -14 866.024 379.429 4
4 0 14 1211.52 476.483 4
5 0 14 6.40745 38.6166 2
-5 0 -14 -47.124 31.2863 2
6 0 14 1778.73 108.487 2
-6 0 -14 1598.55 95.0553 2
7 0 14 -7.1344 48.4545 2
8 0 14 207.891 58.3488 2
9 0 14 106.257 58.7334 2
10 0 14 330.232 83.1755 2
11 0 14 -91.326 57.4279 1
11 0 14 46.1467 76.0831 2
12 0 14 1321.84 141.117 1
-14 1 14 -9.3796 81.3719 1
14 1 -14 -6.8126 57.6493 2
13 -1 -14 107.672 44.1551 2
-13 -1 14 -78.983 66.7644 1
-13 1 14 -55.23 69.3117 1
13 1 -14 -2.8606 85.1533 1
13 1 -14 146.143 55.0022 2
12 -1 -14 20.0191 37.6057 2
-12 -1 14 -19.277 58.6914 1
12 1 -14 6.33063 45.6661 2
-12 1 14 -37.814 64.9174 1
-11 -1 14 384.806 67.665 1
11 -1 -14 464.17 50.9118 2
11 1 -14 610.231 76.1456 2
-11 1 14 356.91 78.89 1
10 -1 -14 408.75 52.0177 2
-10 -1 14 259.604 61.6073 1
10 1 -14 318.459 48.8002 2
-10 1 14 285.842 69.7526 1
9 -1 -14 747.073 56.808 2
-9 -1 14 823.685 93.6101 1
9 1 -14 651.523 68.8406 2
-9 1 14 798.817 88.3419 1
8 -1 -14 299.76 36.7397 2
-8 -1 14 318.971 62.6976 1
-8 1 14 219.831 57.0233 1
8 1 -14 275.19 50.698 2
7 -1 -14 159.96 29.6585 2
-7 -1 14 181.542 51.4475 1
-7 -1 14 180.084 17.539 3
7 1 -14 111.201 32.2077 2
-7 1 14 243.709 55.7942 1
-6 -1 14 110.701 37.2146 1
6 -1 -14 96.0842 26.0414 2
-6 -1 14 93.3403 13.1949 3
-6 1 14 102.699 42.664 1
6 1 -14 88.7941 31.015 2
-5 -1 14 984.281 81.0621 1
5 -1 -14 922.775 53.5575 2
5 1 -14 909.976 62.8584 2
-5 1 14 944.717 84.7999 1
-4 -1 14 335.685 52.877 1
4 -1 -14 342.533 39.1245 2
4 1 -14 359.665 48.0807 2
-4 1 14 378.253 54.9781 1
-3 -1 14 1494.5 91.055 1
3 -1 -14 1389.07 64.8408 2
3 1 -14 1347.86 76.3278 2
-3 1 14 1470.97 92.4045 1
2 -1 -14 196.13 29.0639 2
-2 1 14 182.259 42.3545 1
2 1 -14 189.401 36.3904 2
-1 -1 14 40.6292 33.6776 1
1 -1 -14 52.1425 22.0254 2
-1 -1 14 14.9893 21.0009 2
-1 1 14 35.2059 18.9497 2
1 1 -14 43.8945 28.2398 2
0 -1 -14 -15.991 21.5169 2
0 -1 14 -16.146 29.5358 1
0 -1 14 19.6626 21.5736 2
0 1 14 4.75352 19.09 2
0 1 -14 -17.794 26.7902 2
1 -1 14 365.955 47.8574 1
1 -1 14 346.167 46.4564 2
-1 -1 -14 336.159 43.6099 2
-1 1 -14 397.645 54.5673 2
1 1 14 339.779 44.0106 2
2 -1 14 340.241 47.4584 2
-2 -1 -14 287.707 37.5276 2
2 -1 14 378.364 50.7022 1
2 1 14 320.273 40.4606 2
-2 1 -14 296.186 52.987 2
-3 -1 -14 1593.51 78.9665 2
3 -1 14 1618.81 90.2261 2
-3 1 -14 1757.92 94.8028 2
3 1 14 1801.81 86.0746 2
4 -1 14 480.846 58.7281 2
-4 -1 -14 508.984 55.5433 2
4 1 14 720.793 66.3987 2
-4 1 -14 485.733 64.6971 2
5 -1 14 285.36 53.0843 2
-5 1 -14 282.711 49.3296 2
6 -1 14 -0.4184 39.9971 2
-6 1 -14 -27.553 38.505 2
6 1 14 41.8199 42.4621 2
7 -1 14 250.82 65.6998 2
-7 1 -14 305.475 59.0916 2
7 1 14 299.185 58.0574 2
8 -1 14 371.528 72.6063 2
8 1 14 401.351 66.4755 2
-8 1 -14 383.167 66.9586 2
9 -1 14 759.41 97.799 2
9 1 14 721.496 93.7621 2
10 -1 14 115.476 76.3038 2
10 1 14 103.653 69.4034 2
11 -1 14 139.721 57.2139 1
-11 -1 -14 188.933 25.8928 3
11 1 14 129.975 76.7065 2
11 1 14 85.1521 66.1285 1
12 -1 14 88.3937 71.7255 1
12 1 14 -8.5619 88.3518 1
14 -2 -14 137.863 51.6289 2
14 -2 -14 215.759 93.9889 2
14 2 -14 374.685 79.8414 2
-14 2 14 118.811 88.2345 1
-13 -2 14 720.62 100.131 1
13 -2 -14 698.716 64.6123 2
13 2 -14 726.737 87.3544 2
13 2 -14 683.604 111.207 1
-13 2 14 628.795 102.589 1
12 -2 -14 382.08 45.2285 2
-12 -2 14 125.366 66.6465 1
-12 2 14 181.356 79.8524 1
12 2 -14 266.009 61.8089 2
12 2 -14 242.437 74.4547 1
-11 -2 14 274.544 29.9889 3
11 -2 -14 274.104 37.655 2
-11 -2 14 287.615 71.926 1
11 2 -14 284.59 65.1355 1
11 2 -14 245.528 55.1393 2
-11 2 14 233.534 74.6803 1
10 -2 -14 19.3389 24.6748 2
-10 -2 14 19.1346 17.0596 3
-10 -2 14 112.18 57.2488 1
10 2 -14 -13.385 40.8089 2
10 2 -14 89.5629 58.8313 1
-10 2 14 -57.946 56.549 1
-9 -2 14 59.8852 19.2504 3
9 -2 -14 45.4002 24.7627 2
-9 -2 14 87.1791 50.1764 1
9 2 -14 60.5481 36.7209 2
-9 2 14 123.379 57.524 1
-8 -2 14 280.259 28.6841 3
8 -2 -14 308.536 38.3027 2
-8 -2 14 387.482 66.1324 1
8 2 -14 260.264 45.3962 2
-8 2 14 270.61 61.1948 1
-7 -2 14 1290.91 97.1636 1
-7 -2 14 1206.17 44.3908 3
7 -2 -14 1140.28 52.2571 2
-7 2 14 1079.34 103.389 1
7 2 -14 1229.23 82.0864 2
-6 -2 14 429.976 63.3843 1
-6 -2 14 527.417 29.0883 3
6 -2 -14 534.175 36.2582 2
6 2 -14 530.137 64.2283 2
-6 2 14 672.956 84.6427 1
5 -2 -14 718.955 39.2134 2
-5 -2 14 700.733 30.8049 3
-5 -2 14 662.557 77.1634 1
5 2 -14 672.057 66.4046 2
-5 2 14 755.752 84.3459 1
-4 -2 14 117.917 38.9051 1
4 -2 -14 120.094 20.0722 2
4 2 -14 150.349 43.525 2
-4 2 14 83.8508 41.6176 1
3 -2 -14 106.424 18.8019 2
-3 -2 14 80.4633 34.497 1
-3 2 14 72.3889 36.1992 1
2 -2 -14 261.942 29.3565 2
1 -2 -14 1612.64 62.5456 2
-1 -2 14 1715.07 94.0991 1
-1 -2 14 1557.7 96.2672 2
1 2 -14 1530.74 91.8546 2
0 -2 14 1337.32 74.3688 2
0 -2 14 1310.29 83.3054 1
0 2 14 1272.28 56.6949 2
0 2 -14 1255.11 83.2426 2
1 -2 14 944.553 69.3214 2
1 -2 14 1023.69 75.5571 1
-1 2 -14 1086.25 77.9982 2
1 2 14 958.847 54.8818 2
2 -2 14 81.0736 36.7207 1
2 -2 14 16.9873 29.2456 2
-2 2 -14 88.6407 35.9387 2
2 2 14 70.9923 26.2151 2
3 -2 14 35.0985 34.6526 2
3 -2 14 28.2534 34.7735 1
3 2 14 7.36193 28.7878 2
-3 2 -14 77.6315 39.8701 2
4 -2 14 402.178 58.898 2
4 -2 14 391.424 51.0063 1
4 2 14 401.618 49.0096 2
-4 2 -14 288.502 48.1964 2
5 -2 14 1114.04 96.0621 2
5 -2 14 1033.24 81.1273 1
-5 2 -14 974.776 91.7004 2
5 2 14 855.81 73.9428 2
6 -2 14 487.995 72.0007 2
-6 2 -14 514.137 66.9434 2
6 2 14 469.617 60.504 2
7 -2 14 757.184 101.154 2
-7 2 -14 695.576 82.8273 2
7 2 14 653.66 82.9568 2
8 -2 14 97.8259 62.3581 2
8 2 14 179.031 59.1288 2
-8 2 -14 185.846 63.0036 2
9 -2 14 -84.653 69.1739 2
9 2 14 103.074 66.1794 2
-9 2 -14 -35.196 60.2449 2
10 -2 14 114.732 48.3937 1
10 2 14 280.889 66.1695 1
10 2 14 228.052 79.5886 2
11 -2 14 703.183 76.0031 1
-11 -2 -14 512.586 44.0867 3
11 2 14 561.843 107.157 2
-12 -2 -14 -11.88 27.9752 3
-15 -3 14 -29.757 30.7268 3
-14 -3 14 263.188 38.2914 3
-14 3 14 255.254 106.208 1
-13 -3 14 28.7386 27.0291 3
13 3 -14 -70.278 69.4901 2
-13 3 14 13.5771 88.3974 1
-12 -3 14 155.83 29.6604 3
12 -3 -14 110.392 32.0079 2
-12 -3 14 154.788 73.7107 1
12 -3 -14 126.768 35.3046 2
12 3 -14 88.8715 63.571 2
12 3 -14 90.6928 86.8996 1
-12 3 14 177.511 88.8268 1
-11 -3 14 -14.488 60.0947 1
-11 -3 14 -24.201 20.3406 3
11 3 -14 -76.35 52.0278 2
11 3 -14 -173.46 69.3676 1
-11 3 14 18.1276 71.9085 1
-10 -3 14 1033.08 116.641 1
-10 -3 14 671.513 46.2666 3
-10 3 14 713.733 93.8379 1
10 3 -14 858.429 101.788 1
10 3 -14 867.543 97.1639 2
-9 -3 14 141.506 58.3408 1
-9 -3 14 6.96771 17.1752 3
-9 3 14 52.658 63.6772 1
9 3 -14 127.698 62.8181 1
9 3 -14 -6.931 38.7238 2
-8 -3 14 703.395 94.1193 1
-8 -3 14 650.567 39.7796 3
8 3 -14 787.585 85.6197 2
-8 3 14 700.52 88.8134 1
8 3 -14 871.206 96.6284 1
-7 -3 14 52.5487 44.118 1
-7 3 14 17.1113 50.8469 1
7 3 -14 52.9406 39.7999 2
-6 -3 14 -39.261 42.3158 1
-6 -3 14 35.5816 15.4296 3
6 3 -14 83.7004 43.2241 2
-6 3 14 39.0426 45.2156 1
-5 -3 14 10.6446 14.726 3
-5 -3 14 12.5519 36.9454 1
5 3 -14 49.768 34.7935 2
-5 3 14 23.7159 44.9446 1
-4 -3 14 1041.41 43.7848 3
-4 -3 14 1000.46 87.0392 1
-4 3 14 973.219 94.4416 1
4 3 -14 1113.56 80.4464 2
-3 -3 14 44.192 38.3652 1
-3 -3 14 32.8915 16.4232 3
3 3 -14 2.45969 30.7175 2
-2 -3 14 811.984 39.1374 3
2 3 -14 834.531 76.3625 2
-1 -3 14 -55.943 31.487 1
1 3 -14 -25.898 33.4623 2
0 -3 14 55.3952 33.2222 2
0 -3 14 -23.229 34.9573 1
0 3 -14 16.0777 35.7621 2
0 3 14 9.09423 15.2163 2
1 -3 14 50.4536 39.5934 1
1 -3 14 -4.2681 33.4389 2
-1 3 -14 70.2139 39.8672 2
1 3 14 -1.4342 18.7606 2
2 -3 14 1414.93 89.6574 1
2 -3 14 1382.2 90.8284 2
2 3 14 1301.53 64.231 2
-2 3 -14 1255.35 95.0514 2
3 -3 14 7.69259 41.2701 2
3 -3 14 -1.471 37.4275 1
-3 3 -14 -18.877 41.7646 2
3 3 14 -17.294 28.7804 2
4 -3 14 786.321 84.975 2
4 -3 14 860.656 75.2676 1
-4 3 -14 746.317 91.8826 2
4 3 14 804.119 67.2621 2
5 -3 14 26.634 37.6801 1
5 -3 14 86.529 48.1062 2
5 3 14 8.34915 35.58 2
-5 3 -14 88.4955 51.0654 2
6 -3 14 114.188 44.0115 1
6 -3 14 18.6427 54.4441 2
-6 3 -14 3.14729 57.4564 2
7 -3 14 77.4872 45.396 1
7 -3 14 29.6621 59.4436 2
-7 3 -14 81.779 60.6776 2
7 3 14 -12.109 50.9231 2
8 -3 14 956.95 124.581 2
8 -3 14 815.281 89.1023 1
-8 3 -14 682.392 95.3551 2
8 3 14 804.028 89.6195 2
9 -3 14 13.1599 53.5776 1
9 -3 14 -28.766 38.0301 1
9 3 14 -45.047 69.1865 2
-10 -3 -14 707.526 53.0842 3
10 3 14 470.861 96.0205 2
11 3 14 240.701 104.14 2
-14 -4 14 84.4698 36.6583 3
-14 4 14 0.22341 111.938 1
-13 -4 14 616.687 59.5616 3
-13 4 14 741.798 124.226 1
-12 -4 14 117.356 31.1339 3
-12 4 14 71.5536 100.773 1
-11 -4 14 442.154 41.5666 3
-11 -4 14 219.394 79.177 1
-11 4 14 420.232 101.136 1
11 4 -14 494.008 101.915 1
11 4 -14 442.989 80.4823 2
-10 -4 14 -16.084 60.7875 1
-10 -4 14 32.7637 23.0721 3
10 4 -14 -58.242 57.613 2
-10 4 14 -31.315 72.9978 1
10 4 -14 95.8953 76.288 1
-9 -4 14 146.773 28.7452 3
-9 -4 14 199.128 63.2179 1
9 4 -14 225.981 63.4372 2
-9 4 14 35.6086 72.9735 1
9 4 -14 121.46 71.8652 1
-8 -4 14 -58.228 52.2239 1
-8 -4 14 96.3928 24.6479 3
-8 4 14 53.2905 65.0289 1
8 4 -14 -51.819 49.0189 2
8 4 -14 28.8418 61.1441 1
-7 -4 14 1226.45 109.426 1
-7 -4 14 1224.61 56.3061 3
-7 4 14 1166.07 120.248 1
7 4 -14 1193.85 108.7 2
7 4 -14 1202.84 113.722 1
-6 -4 14 260.369 31.02 3
-6 -4 14 285.322 56.4369 1
-6 4 14 233.855 67.29 1
6 4 -14 221.949 57.7537 2
-5 -4 14 692.678 46.8799 3
-5 -4 14 725.458 87.6177 1
5 4 -14 619.614 86.1117 2
-5 4 14 659.389 86.3846 1
-4 -4 14 58.8967 43.4347 1
4 4 -14 69.2552 45.9931 2
-3 -4 14 50.585 39.5285 1
-3 -4 14 47.5513 22.0112 3
3 4 -14 118.969 45.0588 2
-2 -4 14 151.928 26.6838 3
-2 -4 14 144.52 40.9106 1
2 4 -14 138.985 51.8299 2
-1 -4 14 1709.88 107.84 1
1 4 -14 1853.26 113.505 2
0 -4 14 181.514 42.9621 2
0 -4 14 144.958 45.0449 1
0 4 -14 200.175 50.4777 2
1 -4 14 852.086 76.3526 1
1 -4 14 681.502 79.4981 2
-1 4 -14 866.524 99.3886 2
2 -4 14 66.5822 40.8097 2
2 -4 14 97.0521 38.3243 1
-2 4 -14 113.849 51.118 2
2 4 14 62.5264 23.0287 2
3 -4 14 7.78555 46.0571 2
3 -4 14 -37.374 39.1634 1
-3 4 -14 -12.452 51.4007 2
3 4 14 -41.784 28.0229 2
4 -4 14 81.7435 43.431 1
4 -4 14 129.225 51.1367 2
4 4 14 142.428 38.626 2
-4 4 -14 40.0194 59.7769 2
5 -4 14 981.75 106.088 2
5 -4 14 930.045 77.01 1
5 4 14 1131.11 82.6404 2
-5 4 -14 836.575 115.926 2
6 -4 14 325.975 50.0267 1
6 -4 14 325.482 75.1843 2
6 4 14 329.879 57.9828 2
-6 4 -14 207.242 75.7393 2
7 -4 14 850.363 104.415 2
7 -4 14 1034.31 84.8247 1
7 4 14 1013.12 105.717 2
-7 4 -14 724.751 100.946 2
8 -4 14 35.0551 65.599 1
8 4 14 72.064 73.4231 2
-9 -4 -14 17.7127 31.9755 3
9 4 14 26.4232 87.8062 2
-10 -4 -14 32.9903 33.4488 3
10 4 14 18.1886 97.4454 2
-12 -5 14 -3.4109 33.7894 3
-12 5 14 -98.296 114.109 1
-11 -5 14 228.122 40.3542 3
-11 5 14 89.5847 108.677 1
-10 -5 14 265.93 36.4576 3
-10 -5 14 250.363 87.8161 1
10 5 -14 178.132 134.675 1
-10 5 14 344.675 104.716 1
-9 -5 14 495.709 84.3218 1
-9 -5 14 587.177 51.3667 3
9 5 -14 636.839 105.77 1
-9 5 14 507.698 100.472 1
9 5 -14 769.076 133.009 2
-8 -5 14 218.87 72.7865 1
-8 -5 14 300.59 36.3262 3
-8 5 14 123.792 86.3282 1
8 5 -14 351.481 87.3364 2
8 5 -14 211.162 84.6647 1
-7 -5 14 80.211 55.719 1
-7 -5 14 -65.177 24.4213 3
7 5 -14 8.0658 76.5274 1
7 5 -14 3.10114 63.6645 2
-7 5 14 -85.191 73.7563 1
-6 -5 14 103.75 56.0419 1
-6 -5 14 43.4348 27.9485 3
-6 5 14 -32.927 75.2745 1
6 5 -14 25.5522 65.9431 2
-5 -5 14 377.364 68.019 1
-5 -5 14 371.507 39.7385 3
-5 5 14 433.531 79.6046 1
5 5 -14 381.108 74.3184 2
-4 -5 14 366.997 39.9707 3
-4 -5 14 350.121 60.1763 1
4 5 -14 224.638 62.0526 2
-3 -5 14 779.096 88.7731 1
-3 -5 14 841.813 57.6661 3
3 5 -14 944.674 102.896 2
-2 -5 14 230.94 52.0587 1
-2 -5 14 210.899 35.5681 3
2 5 -14 331.773 66.7153 2
1 5 -14 58.7596 56.4142 2
0 -5 14 39.3059 43.2316 1
0 5 -14 94.2027 59.3254 2
1 -5 14 365.605 57.4607 1
1 -5 14 311.397 60.6247 2
-1 5 -14 189.033 71.3469 2
2 -5 14 379.149 49.5647 1
2 -5 14 380.224 63.2788 2
-2 5 -14 390.769 79.1536 2
3 -5 14 720.001 88.8293 2
3 -5 14 939.208 76.2453 1
-3 5 -14 838.135 97.7985 2
4 -5 14 174.206 64.8611 2
4 -5 14 230.954 43.5701 1
-4 5 -14 319.531 80.2386 2
4 5 14 231.396 44.843 2
5 -5 14 114.689 42.2418 1
5 -5 14 44.649 69.2915 2
-5 5 -14 219.55 95.3672 2
5 5 14 145.5 46.9884 2
-6 -5 -14 13.8392 37.4337 3
6 5 14 -2.561 53.4867 2
-7 -5 -14 14.2924 36.4363 3
7 5 14 111.587 69.6507 2
-8 -5 -14 342.547 43.799 3
8 5 14 490.867 98.8256 2
-9 -5 -14 104.154 39.6812 3
-10 -6 14 106.45 38.0643 3
-10 6 14 68.5152 121.014 1
-9 -6 14 -76.889 32.5202 3
-9 6 14 51.1393 111.241 1
-8 -6 14 382.619 48.3688 3
-8 -6 14 299.744 80.2561 1
-8 6 14 409.368 116.902 1
8 6 -14 470.835 113.536 1
-7 -6 14 90.8805 33.0774 3
-7 -6 14 6.96957 70.1881 1
-7 6 14 75.9824 100.224 1
7 6 -14 62.2039 93.0419 1
-6 -6 14 916.935 67.2432 3
-6 -6 14 910.286 117.809 1
-6 6 14 791.93 116.724 1
-5 -6 14 7.74784 59.6191 1
-5 -6 14 23.4898 35.1483 3
-5 6 14 22.7129 87.9474 1
-4 -6 14 113.511 57.5081 1
-4 -6 14 177.041 37.1964 3
-3 -6 14 -39.278 51.2888 1
-3 -6 14 21.8629 33.0859 3
3 6 -14 -0.1006 84.4285 2
-2 -6 14 291.967 55.7331 1
2 6 -14 206.75 76.0854 2
-1 -6 14 19.5454 44.3399 1
1 6 -14 45.2621 77.2344 2
0 -6 14 927.155 81.781 1
0 6 -14 991.435 146.283 2
1 -6 14 9.15515 44.3894 1
2 -6 14 235.204 47.7721 1
-5 -6 -14 -21.293 43.4213 3
-6 -6 -14 851.575 79.0911 3
-6 -7 14 -39.171 40.6023 3
-6 -7 14 51.6795 76.0724 1
-6 7 14 69.03 135.476 1
-5 -7 14 209.249 75.6127 1
-5 -7 14 238.202 46.4777 3
-5 7 14 314.426 123.332 1
-4 -7 14 127.599 44.4951 3
-4 -7 14 200.137 68.83 1
-3 -7 14 1202.07 122.1 1
-3 -7 14 891.831 82.0253 3
15 0 -15 195.617 78.8973 2
14 0 -15 39.2228 63.1261 2
-13 0 15 938.319 114.317 1
13 0 -15 947.122 96.951 2
-12 0 15 77.2758 72.6758 1
12 0 -15 6.66187 46.2124 2
11 0 -15 406.715 52.5396 2
-11 0 15 447.595 83.8542 1
-10 0 15 170.625 64.6907 1
-9 0 15 249.164 60.7983 1
9 0 -15 338.559 48.6418 2
-8 0 15 48.8853 50.4981 1
8 0 -15 -13.357 33.5772 2
7 0 -15 1908.43 90.2226 2
-7 0 15 1945.8 122.368 1
6 0 -15 -17.832 27.3735 2
-6 0 15 -11.979 44.9103 1
5 0 -15 738.585 60.1473 2
-5 0 15 813.168 83.6825 1
-4 0 15 -32.992 37.0287 1
4 0 -15 10.8012 25.428 2
-3 0 15 209.65 43.6696 1
3 0 -15 156.5 34.14 2
-2 0 15 -44.046 35.1479 1
2 0 -15 -21.233 26.8507 2
-1 0 15 1812.67 102.734 1
-1 0 15 1652.64 76.4751 2
1 0 -15 1612.93 80.9854 2
0 0 15 0.45373 35.6289 1
0 0 -15 -14.1 27.9463 2
0 0 15 -11.964 24.0067 2
1 0 15 1012.4 64.4882 2
-1 0 -15 1000.99 70.1942 2
2 0 15 22.0899 28.0744 2
-2 0 -15 7.93315 31.3361 2
-3 0 -15 236.917 50.1782 2
-4 0 -15 -8.9906 33.8366 2
4 0 15 1.86056 36.3299 2
-5 0 -15 1408.5 93.0811 2
5 0 15 1366.28 95.882 2
6 0 15 -10.944 45.1379 2
-6 0 -15 -41.888 39.3372 2
7 0 15 599.353 81.2575 2
8 0 15 -58.68 62.2626 2
9 0 15 8.95093 68.6255 2
10 0 15 -11.903 82.1928 2
11 0 15 1056.04 134.726 1
12 0 15 -43.228 89.2269 1
15 -1 -15 -20.667 68.5504 2
15 1 -15 219.999 93.5034 2
14 -1 -15 21.3251 61.5581 2
14 1 -15 170.209 75.9354 2
13 -1 -15 89.3404 48.6533 2
-13 -1 15 -46.941 81.2539 1
-13 1 15 -166.64 73.3451 1
13 1 -15 -16.546 56.5542 2
-12 -1 15 -58.91 68.1768 1
-12 1 15 11.8141 70.3294 1
12 1 -15 63.9596 49.5837 2
-11 -1 15 39.1969 57.5333 1
11 -1 -15 138.224 43.1304 2
11 1 -15 124.376 47.4737 2
-11 1 15 146.167 71.7567 1
-10 -1 15 914.823 103.854 1
10 -1 -15 790.229 66.6768 2
10 1 -15 754.185 78.2791 2
-10 1 15 897.662 101.385 1
-9 -1 15 162.209 63.9341 1
-9 -1 15 213.626 22.2693 3
9 -1 -15 281.281 42.2914 2
9 1 -15 286.394 46.1624 2
-9 1 15 164.426 58.7688 1
-8 -1 15 196.483 19.1243 3
8 -1 -15 198.482 33.31 2
-8 -1 15 144.826 52.6518 1
8 1 -15 127.571 39.2234 2
-8 1 15 215.485 55.79 1
-7 -1 15 -6.318 43.3009 1
-7 -1 15 -21.057 12.1371 3
7 -1 -15 -8.5695 24.615 2
-7 1 15 37.2254 51.7748 1
6 -1 -15 239.629 34.4681 2
-6 -1 15 248.963 56.8119 1
6 1 -15 248.648 40.6858 2
-6 1 15 342.803 64.406 1
5 -1 -15 397.16 43.1039 2
-5 -1 15 437.488 64.7665 1
5 1 -15 352.322 45.8088 2
-5 1 15 271.284 55.8856 1
-4 -1 15 1270.66 97.4017 1
4 -1 -15 1427.61 68.2288 2
4 1 -15 1419.02 80.1652 2
-4 1 15 1304.69 98.7089 1
-3 -1 15 344.48 56.4941 1
3 -1 -15 306.366 36.851 2
-3 1 15 302.311 55.9096 1
3 1 -15 364.66 49.2269 2
2 -1 -15 320.012 43.6581 2
-2 -1 15 363.311 53.4904 1
2 1 -15 352.254 50.0991 2
-2 1 15 261.132 48.4494 1
1 -1 -15 -3.5619 23.884 2
-1 -1 15 29.6514 34.0395 1
-1 -1 15 26.5772 24.1477 2
-1 1 15 14.6578 18.0482 2
1 1 -15 90.6249 31.315 2
0 -1 15 353.802 48.0509 2
0 -1 15 309.109 48.3771 1
0 -1 -15 305.522 41.0208 2
0 1 -15 240.617 43.878 2
0 1 15 310.451 40.8219 2
-1 -1 -15 139.64 32.1694 2
1 -1 15 155.965 42.8575 1
1 -1 15 68.29 39.0444 2
-1 1 -15 148.746 39.3156 2
1 1 15 167.974 28.4188 2
2 -1 15 1652.97 100.185 1
2 -1 15 1507.94 88.6602 2
-2 -1 -15 1568.45 79.6821 2
2 1 15 1607.77 81.7627 2
-2 1 -15 1459.54 92.8262 2
-3 -1 -15 542.095 58.8838 2
3 -1 15 519.138 68.4671 2
-3 1 -15 544.831 72.6337 2
3 1 15 495.972 60.0837 2
4 -1 15 557.736 66.6279 2
4 1 15 660.976 79.7366 2
-4 1 -15 565.52 76.3789 2
5 -1 15 45.5553 46.105 2
5 1 15 22.1363 40.3215 2
-5 1 -15 -59.394 40.5154 2
6 -1 15 175.775 53.6757 2
6 1 15 168.817 57.09 2
-6 1 -15 95.1339 48.7078 2
7 -1 15 214.002 62.8803 2
-7 1 -15 292.154 65.1978 2
7 1 15 177.209 61.9747 2
8 -1 15 722.583 98.6096 2
8 1 15 725.664 88.9551 2
-8 1 -15 683.451 84.5084 2
9 -1 15 197.133 83.0251 2
9 1 15 251.738 76.7568 2
10 1 15 358.369 89.7263 2
11 -1 15 181.937 72.3513 1
11 1 15 181.135 114.125 1
-14 -2 15 496.055 47.1292 3
14 2 -15 264.114 88.9216 2
-13 -2 15 470.08 50.3142 3
13 -2 -15 416.24 52.2745 2
13 2 -15 424.862 82.4698 2
-13 2 15 300.313 100.679 1
-12 -2 15 400.007 95.6055 1
12 -2 -15 477.551 51.9653 2
-12 -2 15 403.9 46.3337 3
12 2 -15 515.73 73.8435 2
-12 2 15 391.582 97.471 1
-11 -2 15 86.45 22.3626 3
11 -2 -15 66.6417 33.2649 2
-11 -2 15 -56.23 59.9638 1
-11 2 15 -6.2985 69.7094 1
11 2 -15 124.421 56.0334 2
-10 -2 15 -10.144 20.6899 3
-10 -2 15 79.7136 66.1242 1
10 -2 -15 26.4734 31.6531 2
-10 2 15 40.8083 65.7052 1
10 2 -15 61.3262 46.925 2
-9 -2 15 122.988 56.9503 1
-9 -2 15 199.811 26.976 3
9 -2 -15 223.144 33.1389 2
9 2 -15 221.631 54.7374 2
-9 2 15 211.247 64.8523 1
-8 -2 15 723.021 89.274 1
8 -2 -15 711.326 49.1322 2
-8 -2 15 705.547 38.6195 3
8 2 -15 650.479 77.0909 2
-8 2 15 668.264 85.5373 1
-7 -2 15 398.101 28.499 3
-7 -2 15 466.024 74.7573 1
7 -2 -15 459.35 40.0739 2
-7 2 15 324.72 71.0497 1
7 2 -15 492.954 62.319 2
-6 -2 15 1001.66 93.8027 1
-6 -2 15 1027.65 40.4919 3
6 -2 -15 1033.61 49.6946 2
6 2 -15 1007.17 79.5049 2
-6 2 15 1226.99 108.852 1
-5 -2 15 282.63 54.9533 1
5 -2 -15 253.486 27.2218 2
-5 2 15 373.424 66.218 1
5 2 -15 233.055 41.7063 2
4 -2 -15 26.9974 17.6455 2
-4 -2 15 5.21856 37.6 1
4 2 -15 -20.314 32.418 2
-4 2 15 -18.35 41.0811 1
-3 -2 15 83.4684 43.4263 1
3 -2 -15 105.873 20.2846 2
3 2 -15 102.697 37.1234 2
-3 2 15 63.2041 41.6211 1
-2 -2 15 662.398 80.834 1
2 -2 -15 670.006 42.5908 2
2 2 -15 640.333 70.3014 2
-1 -2 15 664.301 79.1509 1
1 -2 -15 677.203 43.7986 2
-1 -2 15 641.609 63.896 2
1 2 -15 590.784 72.1485 2
0 -2 15 1977.41 106.376 1
0 -2 15 1879.63 95.5125 2
0 2 15 1813.05 73.0664 2
0 2 -15 1861.09 103.436 2
1 -2 15 191.642 46.3783 1
1 -2 15 273.442 48.1314 2
-1 2 -15 199.81 40.3006 2
1 2 15 279.039 33.2487 2
2 -2 15 -48.39 38.0107 1
2 -2 15 -20.897 30.677 2
-2 2 -15 8.09388 35.0528 2
2 2 15 34.5833 30.294 2
3 -2 15 95.0563 41.3829 1
3 -2 15 117.772 46.5389 2
-3 2 -15 111.16 45.1986 2
3 2 15 75.3916 33.5361 2
4 -2 15 671.704 88.3949 2
4 -2 15 676.921 77.2264 1
4 2 15 764.096 72.8227 2
-4 2 -15 770.963 86.8683 2
5 -2 15 661.281 83.4962 2
5 -2 15 706.803 84.0218 1
-5 2 -15 686.466 81.8118 2
6 -2 15 842.302 105.597 2
6 -2 15 926.434 95.5892 1
-6 2 -15 771.915 105.023 2
6 2 15 847.983 90.9805 2
7 -2 15 243.082 71.9967 2
-7 2 -15 263.731 66.4503 2
7 2 15 189.357 60.7654 2
8 -2 15 233.734 71.1353 2
8 2 15 -11.7 58.415 2
-8 2 -15 66.0784 70.6391 2
9 -2 15 101.334 86.0984 2
9 2 15 71.9273 71.7726 2
-9 2 -15 31.1001 135.565 2
10 -2 15 433.054 62.8852 1
10 2 15 307.525 91.2525 2
-14 -3 15 30.648 32.9249 3
-13 -3 15 19.1428 29.7453 3
-13 3 15 -192.23 98.8728 1
-12 -3 15 5.2286 26.4616 3
-12 3 15 -95.44 90.813 1
12 3 -15 -127.85 68.5658 2
-11 -3 15 465.285 88.0217 1
-11 -3 15 481.564 48.9745 3
11 3 -15 634.815 81.6314 2
11 3 -15 465.707 93.2569 1
-11 3 15 599.301 105.338 1
-10 -3 15 97.0928 68.5179 1
-10 -3 15 -2.0588 19.5923 3
10 3 -15 -20.231 65.9458 1
10 3 -15 9.85129 54.3797 2
-10 3 15 72.0392 74.8352 1
-9 -3 15 757.693 95.5109 1
-9 -3 15 710.076 43.0172 3
-9 3 15 505.989 88.5001 1
9 3 -15 890.866 91.0365 2
-8 -3 15 21.5837 53.7327 1
-8 -3 15 0.41589 19.9444 3
8 3 -15 30.2195 46.3016 2
-8 3 15 -12.594 59.8427 1
-7 -3 15 -56.023 46.4377 1
7 3 -15 67.7987 47.858 2
-7 3 15 13.8781 58.1741 1
-6 -3 15 -4.1637 46.4647 1
-6 -3 15 -30.494 17.8152 3
-6 3 15 26.5926 56.8906 1
6 3 -15 -45.141 39.7059 2
-5 -3 15 799.529 92.7392 1
-5 -3 15 773.49 39.9284 3
-5 3 15 766.093 93.5832 1
5 3 -15 812.502 82.9561 2
-4 -3 15 -23.363 17.3772 3
-4 -3 15 0.7147 42.6801 1
4 3 -15 -31.495 37.3306 2
-4 3 15 66.659 54.9558 1
-3 -3 15 678.296 84.6151 1
3 3 -15 842.368 83.6405 2
-2 -3 15 -34.469 41.281 1
2 3 -15 -37.314 37.1936 2
-1 -3 15 85.9162 41.3265 1
1 3 -15 123.662 41.9482 2
0 -3 15 46.5078 34.1037 2
0 -3 15 -2.3801 42.0391 1
0 3 -15 11.3422 39.7168 2
1 -3 15 723.503 75.1493 2
-1 3 -15 663.431 88.5001 2
1 3 15 712.141 44.8706 2
2 -3 15 50.7052 47.2407 1
2 -3 15 -2.021 39.667 2
2 3 15 -2.2734 27.2594 2
-2 3 -15 24.1419 47.9352 2
3 -3 15 1054.09 93.9304 2
3 -3 15 1184.52 92.2728 1
3 3 15 1065.51 69.9459 2
-3 3 -15 1076.96 106.187 2
4 -3 15 18.589 47.2286 2
4 -3 15 98.6551 46.6058 1
4 3 15 -12.364 38.7872 2
-4 3 -15 -54.632 54.2977 2
5 -3 15 34.5278 49.4517 1
5 -3 15 154.464 59.2659 2
5 3 15 -15.036 47.3311 2
-5 3 -15 71.6108 62.97 2
6 -3 15 -12.434 53.6411 1
6 -3 15 32.9265 63.0939 2
6 3 15 15.1964 48.4309 2
-6 3 -15 53.7252 67.9675 2
7 -3 15 677.739 73.6572 1
7 -3 15 642.937 93.5136 2
-7 3 -15 603.107 102.123 2
7 3 15 716.933 80.1155 2
8 -3 15 -76.511 98.271 1
8 3 15 -9.7346 64.7839 2
9 3 15 712.453 99.9781 2
10 3 15 53.6976 87.5071 2
-13 -4 15 66.5932 32.3498 3
-13 4 15 194.536 144.823 1
-12 -4 15 615.405 56.8352 3
-12 4 15 490.831 116.767 1
-11 -4 15 98.5003 27.6128 3
-11 4 15 64.6881 94.543 1
-10 -4 15 -18.231 26.0932 3
-10 -4 15 -112.59 68.9738 1
10 4 -15 -108.64 68.6533 2
10 4 -15 94.8374 90.5451 1
-10 4 15 -19.08 87.1513 1
-9 -4 15 142.722 72.9385 1
-9 -4 15 128.107 27.7094 3
-9 4 15 47.3884 82.0359 1
9 4 -15 131.495 69.7734 2
9 4 -15 205.308 79.1692 1
-8 -4 15 845.68 50.9195 3
-8 -4 15 829.47 97.3026 1
8 4 -15 786.594 96.1697 2
-8 4 15 865.619 108.451 1
-7 -4 15 161.502 62.7971 1
-7 -4 15 147.37 27.6184 3
-7 4 15 200.44 77.9442 1
7 4 -15 164.216 59.6957 2
-6 -4 15 902 52.5125 3
-6 -4 15 943.395 104.666 1
6 4 -15 802.971 99.739 2
-6 4 15 774.86 103.021 1
-5 -4 15 11.3287 51.3149 1
-5 -4 15 24.4975 26.6618 3
5 4 -15 67.691 51.6507 2
-5 4 15 32.5817 62.5522 1
-4 -4 15 -95.024 45.7196 1
4 4 -15 89.7695 51.8348 2
-4 4 15 0.93846 58.9074 1
-3 -4 15 11.3687 22.5169 3
-3 -4 15 8.477 45.74 1
3 4 -15 119.949 52.8279 2
-2 -4 15 1390.29 104.025 1
2 4 -15 1477.02 111.286 2
-1 -4 15 219.308 51.1352 1
1 4 -15 149.168 59.5 2
0 -4 15 1068.92 93.0434 2
0 -4 15 979.055 92.2008 1
0 4 -15 1128.15 108.23 2
1 -4 15 195.695 48.4324 2
-1 4 -15 149.607 60.0877 2
2 -4 15 138.698 46.0296 1
2 -4 15 46.118 44.7345 2
-2 4 -15 -41.684 54.1245 2
2 4 15 47.3109 22.7623 2
3 -4 15 -59.084 44.1202 1
3 -4 15 27.7382 55.4987 2
3 4 15 32.8372 33.2579 2
-3 4 -15 -51.698 56.8525 2
4 -4 15 605.752 65.5692 1
4 -4 15 577.59 86.6857 2
4 4 15 619.834 72.2835 2
-4 4 -15 630.446 89.4544 2
5 -4 15 247.245 52.3856 1
5 -4 15 232.397 68.1259 2
5 4 15 317.089 55.5178 2
-5 4 -15 297.413 81.9132 2
6 -4 15 1262.17 97.7521 1
6 -4 15 1170.16 136.463 2
6 4 15 727.087 126.61 2
-6 4 -15 938.204 132.194 2
7 -4 15 166.994 65.8469 1
7 4 15 125.454 67.5037 2
8 4 15 31.9434 75.2818 2
9 4 15 -2.7216 92.5607 2
-11 -5 15 156.954 36.217 3
-11 5 15 -32.055 116.836 1
-10 -5 15 405.863 43.3505 3
-10 5 15 378.831 124.187 1
-9 -5 15 192.081 76.5471 1
-9 -5 15 195.199 36.593 3
9 5 -15 85.9162 103.525 1
-9 5 15 74.2751 98.437 1
-8 -5 15 206.454 73.1477 1
-8 -5 15 124.096 34.5106 3
8 5 -15 175.741 92.1781 1
-8 5 15 141.597 95.7376 1
-7 -5 15 -80.936 62.5292 1
-7 -5 15 46.8125 31.6822 3
7 5 -15 -65.092 71.8406 2
-7 5 15 -25.721 82.0618 1
-6 -5 15 73.8106 61.2222 1
-6 -5 15 148.717 33.7853 3
-6 5 15 38.2091 82.6199 1
6 5 -15 85.696 70.8003 2
-5 -5 15 359.042 72.0034 1
-5 -5 15 319.425 40.8796 3
5 5 -15 340.769 77.7937 2
-5 5 15 328.111 89.2821 1
-4 -5 15 800.697 58.0509 3
-4 -5 15 766.161 84.9354 1
4 5 -15 702.645 97.2788 2
-3 -5 15 275.421 65.1309 1
-3 -5 15 186.584 36.3758 3
3 5 -15 107.654 61.9374 2
-2 -5 15 170.605 54.9588 1
2 5 -15 330.186 72.1782 2
-1 -5 15 15.7275 48.8278 1
1 5 -15 -51.641 62.7259 2
0 -5 15 131.168 53.865 1
0 5 -15 79.5126 66.5602 2
1 -5 15 262.11 63.2079 2
1 -5 15 385.243 58.0474 1
-1 5 -15 129.064 76.3249 2
2 -5 15 640.459 67.8807 1
2 -5 15 495.947 71.4562 2
-2 5 -15 803.459 103.43 2
3 -5 15 371.133 76.2387 2
3 -5 15 415.709 62.8339 1
-3 5 -15 411.195 93.8907 2
4 -5 15 320.386 54.2185 1
4 5 15 246.244 44.6243 2
5 5 15 14.8161 60.0535 2
-9 6 15 -6.3358 127.947 1
-8 -6 15 15.5884 39.3989 3
-8 6 15 103.091 124.2 1
-7 -6 15 849.961 108.085 1
-7 -6 15 857.091 69.6937 3
-7 6 15 487.541 124.326 1
-6 -6 15 13.9742 74.2622 1
-6 -6 15 34.3387 39.1576 3
-6 6 15 128.457 111.892 1
-5 -6 15 350.992 47.4991 3
-5 -6 15 383.836 76.5194 1
-5 6 15 405.396 113.651 1
-4 -6 15 32.5465 39.7347 3
-4 -6 15 -41.507 61.6765 1
-3 -6 15 204.755 63.0377 1
-3 -6 15 136.085 42.2741 3
-2 -6 15 117.164 57.8065 1
-1 -6 15 726.836 94.7335 1
0 -6 15 -22.88 52.4321 1
1 -6 15 353.584 65.571 1
15 0 -16 144.336 94.0868 2
14 0 -16 806.104 94.5359 2
13 0 -16 -5.7058 60.7278 2
12 0 -16 483.322 61.9533 2
-12 0 16 441.258 92.7534 1
-11 0 16 -61.034 66.0893 1
11 0 -16 -6.2696 47.8182 2
-10 0 16 -51.935 62.5238 1
10 0 -16 70.0251 44.1408 2
9 0 -16 66.8125 44.4372 2
-9 0 16 -12.929 53.5512 1
8 0 -16 1248.71 84.2368 2
-8 0 16 1258.09 120.031 1
-7 0 16 2.27696 49.1838 1
7 0 -16 -0.6516 33.1507 2
-6 0 16 1191.75 113.859 1
6 0 -16 1438.21 82.4688 2
-5 0 16 51.9036 47.3496 1
5 0 -16 21.7242 33.6062 2
-4 0 16 31.5254 43.1826 1
4 0 -16 44.2051 32.5828 2
3 0 -16 -31.192 29.497 2
-3 0 16 90.5412 46.2956 1
2 0 -16 1294.98 78.6153 2
-2 0 16 1398.44 101.66 1
-1 0 16 -39.558 25.8562 2
-1 0 16 -35.613 41.4835 1
1 0 -16 15.1396 31.4406 2
0 0 16 772.131 60.5119 2
0 0 -16 754.92 72.0778 2
0 0 16 720.61 90.6412 1
-1 0 -16 5.68788 33.5686 2
1 0 16 -34.672 42.9276 1
1 0 16 -27.727 27.126 2
3 0 16 13.946 40.1308 2
-3 0 -16 59.6135 38.6119 2
-4 0 -16 1109.99 88.2183 2
4 0 16 1141.38 95.4021 2
5 0 16 6.85011 48.3098 2
-5 0 -16 -25.248 41.6359 2
-6 0 -16 938.283 95.8266 2
6 0 16 825.548 102.846 2
7 0 16 -64.895 58.9418 2
8 0 16 -25.767 69.9894 2
9 0 16 -85.201 82.2885 2
11 0 16 -7.8232 100.122 1
15 1 -16 346.738 120.402 2
14 -1 -16 83.5507 68.0476 2
14 1 -16 -37.317 87.082 2
13 -1 -16 -86.744 56.3811 2
13 1 -16 23.9795 69.6032 2
-12 -1 16 47.4876 85.8552 1
12 -1 -16 162.124 51.6334 2
-12 1 16 125.985 86.5718 1
12 1 -16 219.992 58.8852 2
-11 -1 16 439.169 92.4396 1
11 -1 -16 467.27 60.5438 2
-11 1 16 320.727 86.9285 1
11 1 -16 450.539 66.1182 2
-10 -1 16 134.093 69.7739 1
-10 -1 16 156.993 27.237 3
10 -1 -16 189.563 43.2493 2
10 1 -16 192.324 52.4891 2
-10 1 16 30.1959 72.7901 1
-9 -1 16 515.722 34.2902 3
9 -1 -16 391.858 48.0987 2
-9 -1 16 444.146 82.5514 1
-9 1 16 368.056 81.3011 1
9 1 -16 392.412 55.8005 2
8 -1 -16 16.6822 30.4468 2
-8 -1 16 51.372 16.6368 3
-8 -1 16 -26.998 47.3206 1
-8 1 16 94.8424 58.118 1
8 1 -16 61.7462 38.8355 2
-7 -1 16 111.17 55.267 1
7 -1 -16 108.398 33.204 2
-7 1 16 117.618 65.3766 1
7 1 -16 33.8667 40.6516 2
6 -1 -16 189.004 35.5781 2
-6 -1 16 136.917 51.7371 1
6 1 -16 160.946 44.4331 2
-6 1 16 77.836 52.5118 1
5 -1 -16 741.079 58.2688 2
-5 -1 16 796.464 91.5914 1
5 1 -16 752.17 87.9564 2
-5 1 16 928.207 101.439 1
4 -1 -16 375.917 48.6648 2
-4 -1 16 500.241 72.1522 1
-4 1 16 533.873 75.4708 1
-3 -1 16 669.747 83.82 1
3 -1 -16 728.61 57.1088 2
-3 1 16 680.729 82.3863 1
2 -1 -16 -7.5358 28.0935 2
-2 -1 16 -101.39 40.1496 1
-2 1 16 -27.711 41.3446 1
2 1 -16 -14.066 40.464 2
1 -1 -16 8.42769 28.0836 2
-1 -1 16 71.8147 44.5214 1
-1 -1 16 20.4873 26.4893 2
-1 1 16 -88.191 38.5 1
1 1 -16 -43.284 33.0153 2
0 -1 16 102.749 44.0499 1
0 -1 -16 129.415 32.3781 2
0 -1 16 212.014 40.7331 2
0 1 16 129.615 30.0715 2
0 1 -16 229.76 44.5728 2
1 -1 16 1491.67 90.1142 2
1 -1 16 1610.27 107.551 1
-1 -1 -16 1652.27 83.441 2
-1 1 -16 1470.33 96.6548 2
1 1 16 1426.17 76.8391 2
-2 -1 -16 370.086 47.3339 2
2 -1 16 339.229 57.1204 1
2 -1 16 295.424 46.4703 2
2 1 16 349.867 49.0807 2
-2 1 -16 385.097 59.0947 2
3 -1 16 860.942 92.4374 1
3 -1 16 1074.45 88.3018 2
-3 1 -16 893.783 87.7068 2
3 1 16 1068.8 89.5571 2
4 -1 16 144.258 49.9865 2
-4 1 -16 -20.795 44.1515 2
4 1 16 44.6889 42.4764 2
5 -1 16 -58.075 50.0254 2
-5 1 -16 -28.318 51.1686 2
5 1 16 -32.707 45.1558 2
6 -1 16 234.244 65.8059 2
-6 1 -16 99.4884 58.5872 2
6 1 16 240.522 62.9175 2
7 -1 16 648.065 87.174 2
7 1 16 534.704 89.5126 2
-7 1 -16 363.791 71.5834 2
8 -1 16 205.295 81.2853 2
8 1 16 180.178 82.7471 2
-8 1 -16 295.717 79.9959 2
9 -1 16 723.05 139.027 2
9 1 16 833.244 110.677 2
10 1 16 151.359 163.489 2
-14 -2 16 344.29 42.0763 3
-13 -2 16 391.401 41.7496 3
13 2 -16 435.531 92.3392 2
-12 -2 16 243.259 36.5266 3
12 -2 -16 104.42 47.2722 2
12 2 -16 233.941 72.7565 2
-12 2 16 383.162 100.853 1
-11 -2 16 18.3926 71.5961 1
-11 -2 16 111.073 28.984 3
11 -2 -16 97.8683 42.0066 2
11 2 -16 120.989 66.242 2
-11 2 16 139.686 89.0591 1
-10 -2 16 122.292 27.5797 3
-10 -2 16 44.4043 68.9091 1
10 -2 -16 84.0535 34.2309 2
10 2 -16 47.1218 55.7527 2
-10 2 16 158.137 78.1141 1
9 -2 -16 352.03 38.1296 2
-9 -2 16 416.458 35.4255 3
-9 -2 16 447.727 82.9178 1
-9 2 16 350.727 78.7012 1
9 2 -16 352.604 65.2648 2
-8 -2 16 310.086 73.5366 1
-8 -2 16 304.631 31.1551 3
8 -2 -16 379.629 43.6081 2
8 2 -16 298.687 57.9546 2
-8 2 16 299.442 71.8164 1
-7 -2 16 940.626 40.4747 3
-7 -2 16 916.503 111.184 1
7 -2 -16 932.596 51.9621 2
-7 2 16 748.544 90.6454 1
7 2 -16 886.92 85.6878 2
-6 -2 16 308.387 67.6891 1
6 -2 -16 292.381 38.2042 2
6 2 -16 252.259 49.4234 2
-6 2 16 216.389 60.4986 1
-5 -2 16 72.5454 54.5398 1
5 -2 -16 77.9353 24.3529 2
-5 2 16 65.7128 54.268 1
5 2 -16 148.711 47.0307 2
-4 -2 16 30.0127 45.6658 1
4 -2 -16 -20.482 20.2218 2
4 2 -16 -66.423 37.9678 2
-4 2 16 -3.7482 47.7149 1
-3 -2 16 377.986 66.0252 1
3 -2 -16 361.133 39.2851 2
-3 2 16 444.283 68.5031 1
3 2 -16 398.107 56.8352 2
2 -2 -16 542.9 44.506 2
-2 -2 16 689.607 88.0462 1
-2 2 16 437.507 66.4153 1
2 2 -16 580.496 67.4177 2
-1 -2 16 1377.22 86.4203 2
-1 -2 16 1432.68 106.171 1
1 -2 -16 1313.75 64.019 2
1 2 -16 1616.74 99.3145 2
0 -2 16 403.044 65.2671 1
0 -2 16 203.002 43.22 2
0 2 -16 324.336 53.9873 2
0 2 16 231.231 33.5508 2
1 -2 16 195.12 49.1552 1
1 -2 16 162.732 40.7188 2
-1 2 -16 168.067 50.4057 2
1 2 16 206.638 32.5233 2
2 -2 16 -54.793 47.1203 1
2 -2 16 -12.015 44.2406 2
-2 2 -16 -8.1863 47.5423 2
2 2 16 -28.586 28.5106 2
3 -2 16 374.016 60.4124 2
3 -2 16 454.424 64.0586 1
3 2 16 403.026 49.859 2
-3 2 -16 481.045 68.779 2
4 -2 16 508.516 74.1066 2
4 -2 16 401.034 67.6718 1
-4 2 -16 409.792 70.2206 2
4 2 16 382.004 55.7701 2
5 -2 16 1083.18 102.216 1
5 -2 16 951.335 108.512 2
-5 2 -16 994.171 115.078 2
5 2 16 982.62 96.8911 2
6 -2 16 272.989 73.0865 2
6 -2 16 424.085 70.96 1
-6 2 -16 433.451 85.007 2
6 2 16 345.991 66.6773 2
7 -2 16 271.513 71.599 1
7 -2 16 257.356 77.3456 2
7 2 16 307.604 78.9239 2
-7 2 -16 160.053 81.0167 2
8 -2 16 -23.144 85.5889 2
-8 2 -16 160.72 118.851 2
8 2 16 -25.957 73.3322 2
9 2 16 179.581 86.8942 2
10 2 16 202.646 104.271 2
-13 -3 16 -40.42 32.2109 3
-12 -3 16 581.405 49.4059 3
-12 3 16 440.874 128.049 1
12 3 -16 366.943 121.505 2
-11 -3 16 16.8826 25.6751 3
11 3 -16 -96.388 71.0716 2
-11 3 16 1.67292 93.1163 1
-10 -3 16 795.596 49.517 3
-10 -3 16 541.12 95.1525 1
10 3 -16 1088.55 132.437 2
-10 3 16 829.561 110.564 1
-9 -3 16 120.066 70.5076 1
-9 -3 16 -4.5971 23.6564 3
-9 3 16 -112.52 77.1548 1
9 3 -16 54.7367 57.6181 2
-8 -3 16 24.4409 63.6822 1
-8 -3 16 98.98 26.3174 3
8 3 -16 9.32732 58.9601 2
-8 3 16 -64.29 66.0234 1
-7 -3 16 33.3738 57.4887 1
7 3 -16 30.6782 51.9561 2
-7 3 16 13.9637 67.6168 1
-6 -3 16 377.901 36.0839 3
-6 -3 16 387.17 75.9114 1
-6 3 16 374.175 82.3891 1
6 3 -16 437.411 63.3619 2
-5 -3 16 52.2742 51.3512 1
-5 -3 16 18.5942 19.9861 3
-5 3 16 -18.006 66.4507 1
5 3 -16 23.8608 42.0244 2
-4 -3 16 1114.06 104.913 1
4 3 -16 882.552 96.573 2
-4 3 16 1180.35 120.821 1
-3 -3 16 19.6468 52.1985 1
-3 3 16 12.1759 57.9915 1
3 3 -16 12.7291 47.4979 2
-2 -3 16 276.022 62.7995 1
2 3 -16 378.8 60.1945 2
-1 -3 16 -52.409 45.6026 1
1 3 -16 -23.246 48.6246 2
0 -3 16 212.853 44.0499 2
0 -3 16 293.124 57.3721 1
0 3 -16 333.983 65.3033 2
1 -3 16 -34.338 40.6706 2
1 -3 16 31.9863 51.3394 1
1 3 16 -0.9686 23.9901 2
-1 3 -16 13.8965 52.101 2
2 -3 16 1249.6 104.806 2
2 -3 16 1082.41 99.643 1
2 3 16 1029.13 63.9742 2
-2 3 -16 1190.01 112.776 2
3 -3 16 3.86256 56.5817 1
3 -3 16 0.87354 51.2455 2
-3 3 -16 -18.601 57.8525 2
3 3 16 50.9794 38.1318 2
4 -3 16 266.433 66.9657 2
4 -3 16 362.863 62.697 1
4 3 16 308.027 53.2018 2
-4 3 -16 105.636 69.594 2
5 -3 16 -43.918 54.8253 1
5 -3 16 55.6173 63.2486 2
-5 3 -16 47.6965 68.5962 2
6 -3 16 293.514 80.0009 2
6 -3 16 230.38 67.8722 1
6 3 16 357.667 73.9732 2
-6 3 -16 289.613 86.2711 2
7 -3 16 33.3091 66.6671 1
7 3 16 70.3196 71.8154 2
8 -3 16 1160.04 131.15 1
8 3 16 895.774 112.591 2
9 3 16 -102.47 88.1166 2
-12 -4 16 70.9956 32.6076 3
-11 -4 16 -28.244 30.8751 3
-11 4 16 16.9795 112.528 1
-10 4 16 260.745 101.298 1
-9 -4 16 220.562 83.7164 1
-9 -4 16 275.184 35.6053 3
9 4 -16 367.142 89.0148 2
-9 4 16 30.3992 95.0014 1
-8 -4 16 272.44 36.0794 3
-8 -4 16 163.102 69.5264 1
8 4 -16 226.383 81.6459 2
-8 4 16 206.003 95.5714 1
-7 -4 16 1005.43 125.566 1
-7 -4 16 927.753 57.3072 3
-7 4 16 1016.52 119.412 1
7 4 -16 897.061 122.803 2
-6 -4 16 53.7728 61.7674 1
-6 -4 16 37.4132 28.3385 3
6 4 -16 -33.509 59.3366 2
-6 4 16 34.6801 77.8125 1
-5 -4 16 160.138 35.1558 3
-5 -4 16 218.82 65.1516 1
5 4 -16 131.419 55.4028 2
-5 4 16 225.605 78.2691 1
-4 -4 16 10.6366 31.0827 3
-4 -4 16 140.244 62.8445 1
-4 4 16 56.817 71.2139 1
4 4 -16 -56.376 52.4381 2
-3 -4 16 763.797 104.607 1
3 4 -16 630.817 89.5577 2
-2 -4 16 123.72 55.6891 1
2 4 -16 58.9056 65.4958 2
-1 -4 16 1050.96 108.645 1
1 4 -16 1363.22 122.109 2
0 -4 16 213.475 60.9502 1
0 4 -16 292.321 74.3769 2
1 -4 16 189.997 57.9609 1
1 -4 16 152.378 49.8301 2
-1 4 -16 94.9907 69.5789 2
2 -4 16 4.58971 52.9557 2
2 -4 16 -60.821 51.7161 1
-2 4 -16 -67.933 67.4157 2
3 -4 16 342.992 63.9226 1
3 -4 16 339.021 68.3143 2
-3 4 -16 263.273 82.0954 2
3 4 16 361.875 44.5453 2
4 -4 16 257.776 82.2221 2
-4 4 -16 241.914 85.757 2
4 4 16 211.245 48.022 2
5 -4 16 924.546 102.303 1
5 4 16 952.088 100.742 2
6 -4 16 159.58 70.6617 1
6 4 16 66.564 70.1391 2
7 4 16 259.991 83.5617 2
8 4 16 172.131 130.077 2
-10 -5 16 180.235 39.8627 3
-9 -5 16 194.538 40.8346 3
-9 5 16 76.0891 122.108 1
-8 -5 16 19.0924 33.2445 3
-8 -5 16 26.8809 78.5563 1
-8 5 16 24.6652 107.356 1
-7 -5 16 -30.154 32.8854 3
-7 -5 16 93.7063 75.9746 1
-7 5 16 -168.35 95.0012 1
-6 -5 16 162.743 76.2839 1
-6 -5 16 234.611 40.084 3
-6 5 16 203.586 100.426 1
-5 -5 16 445.783 48.2464 3
-5 -5 16 418.351 79.6152 1
5 5 -16 302.129 93.0841 2
-5 5 16 437.386 103.831 1
-4 -5 16 391.021 48.1984 3
-4 -5 16 435.448 85.1699 1
-4 5 16 385.135 96.9748 1
4 5 -16 228.806 77.7367 2
-3 -5 16 440.704 80.5365 1
3 5 -16 427.876 91.7236 2
-2 -5 16 -52.151 59.6195 1
2 5 -16 59.7637 75.2864 2
-1 -5 16 -41.88 58.5809 1
1 5 -16 71.131 81.2967 2
0 -5 16 159.4 59.8896 1
0 5 -16 211.317 96.4763 2
1 -5 16 579.031 73.0613 1
2 -5 16 296.383 71.3532 1
3 -5 16 427.168 70.765 1
-7 -6 16 30.9117 43.284 3
-6 -6 16 427.137 95.1562 1
-6 -6 16 413.135 55.1173 3
-5 -6 16 -27.949 73.8885 1
-5 -6 16 28.7131 42.568 3
-4 -6 16 3.74849 70.0982 1
-4 -6 16 10.688 41.2155 3
-3 -6 16 150.091 76.5566 1
-2 -6 16 879.307 118.793 1
-1 -6 16 77.6587 65.9754 1
14 0 -17 -62.707 87.0325 2
13 0 -17 791.247 95.2818 2
12 0 -17 -1.6484 59.9018 2
-11 0 17 -10.782 84.969 1
11 0 -17 -92.329 50.523 2
10 0 -17 12.1347 49.8523 2
-10 0 17 136.667 82.7045 1
-9 0 17 988.527 130.61 1
9 0 -17 842.469 85.8122 2
-8 0 17 50.7023 62.122 1
7 0 -17 1134.39 82.931 2
-7 0 17 1036.87 121.006 1
-6 0 17 -24.407 58.8095 1
6 0 -17 11.1853 36.5018 2
-5 0 17 233.945 65.2328 1
5 0 -17 138.116 42.0036 2
4 0 -17 58.3207 37.1638 2
-4 0 17 -76.718 48.3108 1
-3 0 17 933.457 106.111 1
3 0 -17 1043.37 80.0002 2
-2 0 17 -8.1279 46.8826 1
2 0 -17 49.0281 35.1308 2
-1 0 17 1074.87 107.943 1
1 0 -17 1087.92 80.4514 2
0 0 17 9.88759 51.8264 1
0 0 -17 115.738 54.915 2
-1 0 -17 49.2893 43.2849 2
1 0 17 -2.3454 34.3777 2
1 0 17 9.04358 50.9817 1
-2 0 -17 -15.936 39.5179 2
2 0 17 89.4364 42.4592 2
3 0 17 419.158 61.029 2
-3 0 -17 408.733 63.2083 2
-4 0 -17 -33.58 49.0996 2
4 0 17 -12.359 48.24 2
5 0 17 970.506 111.899 2
-5 0 -17 949.229 100.166 2
6 0 17 -68.741 60.3152 2
7 0 17 88.11 76.1338 2
8 0 17 -60.251 84.0673 2
14 1 -17 58.9204 102.933 2
13 1 -17 -83.622 82.8587 2
12 -1 -17 245.725 62.0598 2
-12 -1 17 315.629 36.4782 3
12 1 -17 337.403 79.4311 2
11 -1 -17 192.321 54.6681 2
-11 -1 17 321.848 138.128 1
-11 -1 17 225.395 31.3664 3
11 1 -17 86.9445 63.0828 2
-11 1 17 164.663 84.039 1
-10 -1 17 326.434 88.767 1
-10 -1 17 534.693 49.5066 3
10 -1 -17 518.832 60.8429 2
-10 1 17 557.825 95.0238 1
10 1 -17 594.241 74.8022 2
-9 -1 17 61.7313 69.3909 1
-9 -1 17 46.5773 21.247 3
9 -1 -17 45.8178 39.6284 2
-9 1 17 186.409 83.221 1
9 1 -17 35.272 50.6753 2
8 -1 -17 -38.686 37.1883 2
-8 -1 17 24.6972 68.9821 1
8 1 -17 -34.488 45.6728 2
-8 1 17 1.50628 68.4631 1
-7 -1 17 141.409 60.507 1
7 -1 -17 38.8243 35.0431 2
-7 1 17 21.3571 66.363 1
7 1 -17 51.0275 42.1997 2
-6 -1 17 498.546 78.4997 1
6 -1 -17 530.981 60.3185 2
6 1 -17 455.328 59.175 2
-6 1 17 428.913 78.3495 1
-5 -1 17 439.354 72.4493 1
5 -1 -17 459.285 56.4177 2
-5 1 17 441.071 70.6343 1
5 1 -17 480.227 62.726 2
4 -1 -17 785.179 62.833 2
-4 -1 17 824.709 108.507 1
4 1 -17 835.082 77.5405 2
-4 1 17 850.943 105.921 1
-3 -1 17 160.018 59.9373 1
3 -1 -17 118.013 36.9557 2
3 1 -17 69.5657 41.2076 2
-3 1 17 99.9109 56.9131 1
-2 -1 17 -23.564 51.545 1
2 -1 -17 44.5309 31.9683 2
-2 1 17 45.6978 56.0687 1
2 1 -17 82.9207 40.1962 2
1 -1 -17 -14.931 30.7777 2
-1 -1 17 -41.277 50.2878 1
-1 1 17 90.6904 58.8169 1
1 1 -17 28.4786 38.7356 2
0 -1 -17 740.552 66.9667 2
0 -1 17 621.185 71.0407 2
0 -1 17 778.281 100.676 1
0 1 17 729.335 61.9606 2
0 1 -17 565.563 78.7654 2
1 -1 17 580.836 74.1403 2
1 -1 17 605.609 74.669 1
-1 -1 -17 575.86 69.1064 2
-1 1 -17 544.553 71.7188 2
1 1 17 567.168 61.459 2
2 -1 17 1403.16 98.402 2
-2 -1 -17 1285.28 139.596 2
2 -1 17 1574.17 123.121 1
-2 1 -17 1522.87 104.756 2
2 1 17 1417.02 98.8822 2
-3 -1 -17 65.912 41.333 2
3 -1 17 131.601 63.8217 1
3 -1 17 139.881 49.5748 2
3 1 17 90.3172 42.8851 2
-3 1 -17 21.6291 52.2965 2
4 -1 17 134.833 63.2181 1
4 -1 17 -4.547 49.9663 2
4 1 17 55.6448 51.0278 2
-4 1 -17 17.8232 55.7397 2
5 -1 17 127.247 59.3765 2
-5 1 -17 22.71 60.422 2
5 1 17 30.6537 57.8829 2
6 -1 17 381.89 82.3366 2
-6 1 -17 593.633 84.395 2
6 1 17 465.612 78.0003 2
7 -1 17 314.747 89.6625 2
-7 1 -17 225.878 73.0529 2
7 1 17 161.339 79.8234 2
8 -1 17 957.227 175.086 2
8 1 17 752.448 110.309 2
9 1 17 240.45 108.52 2
13 2 -17 17.4715 113.408 2
-12 -2 17 84.4744 35.3518 3
12 2 -17 155.168 87.761 2
-11 -2 17 29.7792 28.2456 3
11 2 -17 -68.507 69.7843 2
-11 2 17 21.3289 106.392 1
-10 -2 17 21.044 82.3081 1
-10 -2 17 34.1811 25.1893 3
10 -2 -17 74.1379 37.8858 2
-10 2 17 135.703 91.1831 1
10 2 -17 70.5603 71.7726 2
-9 -2 17 277.311 31.4002 3
9 -2 -17 214.314 36.2101 2
-9 -2 17 345.154 79.5236 1
9 2 -17 291.817 66.0023 2
-9 2 17 379.018 89.3859 1
-8 -2 17 822.925 106.451 1
8 -2 -17 669.99 56.8811 2
-8 -2 17 690.757 41.083 3
8 2 -17 675.233 74.7332 2
-8 2 17 756.447 109.118 1
-7 -2 17 289.977 74.174 1
7 2 -17 361.352 62.9368 2
-7 2 17 225.629 79.4128 1
6 -2 -17 244.923 32.944 2
-6 -2 17 174.172 67.509 1
-6 2 17 152.847 66.6085 1
6 2 -17 211.603 55.4447 2
-5 -2 17 85.3428 61.3372 1
5 -2 -17 -38.266 23.5686 2
5 2 -17 -87.667 41.4043 2
-5 2 17 20.9881 55.6049 1
4 -2 -17 73.1212 26.1682 2
-4 -2 17 92.803 60.6019 1
-4 2 17 183.683 63.8969 1
4 2 -17 103.171 46.0481 2
3 -2 -17 298.289 33.9354 2
-3 -2 17 193.448 63.9222 1
3 2 -17 363.699 61.9386 2
-3 2 17 213.768 63.4009 1
2 -2 -17 1056.35 58.7923 2
-2 -2 17 1118.66 111.996 1
2 2 -17 1180.61 96.3878 2
-2 2 17 883.094 115.832 1
-1 -2 17 240.437 68.1994 1
1 2 -17 430.818 63.7237 2
0 -2 17 436.662 66.3021 1
0 -2 17 283.297 48.1794 2
0 2 -17 517.006 72.5987 2
0 2 17 363.513 38.9629 2
1 -2 17 -51.594 55.7623 1
1 -2 17 3.80482 37.8057 2
1 2 17 64.7379 31.2402 2
2 -2 17 153.422 48.264 2
2 -2 17 217.109 63.5398 1
-2 2 -17 215.232 64.8354 2
2 2 17 126.654 38.5241 2
3 -2 17 245.367 60.2974 2
3 -2 17 154.967 62.1825 1
-3 2 -17 242.824 63.1234 2
3 2 17 231.481 48.8452 2
4 -2 17 804.311 97.5436 1
4 -2 17 937.062 111.029 2
-4 2 -17 874.867 101.566 2
4 2 17 878.207 93.6305 2
5 -2 17 333.821 71.1939 1
5 -2 17 492.326 84.6283 2
5 2 17 380.601 67.2919 2
-5 2 -17 404.227 82.3247 2
6 -2 17 540.136 87.3346 1
6 -2 17 495.862 92.618 2
6 2 17 480.593 80.0802 2
-6 2 -17 589.152 97.9013 2
7 -2 17 62.2785 74.1945 1
7 2 17 -21.054 79.1431 2
8 -2 17 35.7104 87.8937 1
8 2 17 246.991 103.501 2
9 -2 17 569.383 177.282 1
9 2 17 248.256 114.868 2
-12 -3 17 -34.079 30.7266 3
-11 -3 17 952.53 59.5747 3
11 3 -17 872.209 122.856 2
-10 -3 17 -3.5965 26.7397 3
10 3 -17 37.5328 79.7988 2
-10 3 17 -111.4 89.8489 1
-9 -3 17 359.57 90.9226 1
-9 -3 17 325.699 34.8858 3
-9 3 17 183.036 97.7297 1
9 3 -17 396.055 88.9609 2
-8 -3 17 27.2854 27.301 3
-8 -3 17 68.1375 70.2887 1
8 3 -17 88.967 66.3091 2
-8 3 17 2.84583 84.6505 1
-7 -3 17 254.454 78.1395 1
-7 -3 17 319.61 40.5675 3
-7 3 17 316.799 83.634 1
7 3 -17 248.905 69.2924 2
-6 -3 17 38.8087 70.0067 1
-6 3 17 -3.0411 75.5503 1
6 3 -17 40.3307 55.1882 2
-5 -3 17 1270.08 126.387 1
5 3 -17 1117.71 110.064 2
-5 3 17 866.795 109.685 1
-4 -3 17 63.9388 65.5881 1
-4 3 17 -45.068 68.9088 1
4 3 -17 212.029 63.1283 2
-3 -3 17 638.374 84.3957 1
3 3 -17 506.69 75.4086 2
-3 3 17 584.87 95.4631 1
-2 -3 17 -14.429 56.7927 1
2 3 -17 -1.9301 51.2163 2
-1 -3 17 155.119 64.1193 1
1 3 -17 166.962 64.6164 2
0 -3 17 0.61636 60.5275 1
0 -3 17 77.0262 46.4171 2
0 3 -17 -23.835 59.1476 2
1 -3 17 1023.32 101.115 2
1 -3 17 1173 111.736 1
-1 3 -17 923.184 120.158 2
1 3 17 950.952 57.6377 2
2 -3 17 3.51317 47.2787 2
2 -3 17 -14.77 62.6308 1
-2 3 -17 -37.087 66.9907 2
2 3 17 42.4668 32.9956 2
3 -3 17 596.2 83.0578 1
3 3 17 614.489 72.9916 2
-3 3 -17 701.177 99.547 2
4 -3 17 29.884 66.2046 1
4 -3 17 7.66656 63.4757 2
-4 3 -17 -1.3126 75.9289 2
4 3 17 -29.585 49.0719 2
5 -3 17 -5.4857 68.8268 2
5 -3 17 119.501 69.933 1
5 3 17 50.0724 60.0784 2
-5 3 -17 36.5601 84.1433 2
6 -3 17 -185.35 74.8271 1
6 3 17 -74.276 69.0035 2
7 -3 17 699.82 101.596 1
7 3 17 889.96 105.914 2
8 3 17 -44.662 99.9352 2
-11 -4 17 30.6522 36.8545 3
-10 -4 17 150.72 35.9665 3
-9 -4 17 132.949 34.6622 3
-8 -4 17 452.735 95.3801 1
-8 -4 17 562.638 56.5629 3
-8 4 17 390.271 112.762 1
8 4 -17 590.777 129.24 2
-7 -4 17 116.965 33.806 3
-7 -4 17 -30.971 74.5747 1
7 4 -17 74.6125 80.3763 2
-7 4 17 169.18 97.6068 1
-6 -4 17 236.501 78.4128 1
-6 -4 17 411.084 43.2336 3
-6 4 17 309.087 99.4627 1
6 4 -17 273.753 85.9244 2
-5 -4 17 50.4285 72.5703 1
-5 -4 17 15.9369 32.5008 3
-5 4 17 79.3174 87.0924 1
5 4 -17 -155.7 68.9277 2
-4 -4 17 311.199 37.7017 3
-4 -4 17 241.854 76.6154 1
-4 4 17 296.162 88.3517 1
4 4 -17 221.346 79.8059 2
-3 -4 17 105.219 69.4336 1
-3 4 17 59.1501 75.8366 1
3 4 -17 246.556 76.4766 2
-2 -4 17 848.603 116.674 1
2 4 -17 739.361 91.7081 2
1 4 -17 33.9674 70.3223 2
0 -4 17 481.31 81.5527 1
0 4 -17 475.539 92.1982 2
1 -4 17 -21.927 63.6068 1
1 -4 17 37.6157 59.1782 2
-1 4 -17 85.6549 80.4242 2
2 -4 17 242.326 65.2361 1
2 -4 17 74.1443 61.8125 2
-2 4 -17 224.724 83.9514 2
3 -4 17 174.303 66.2708 1
3 4 17 98.9285 37.6594 2
4 -4 17 997.924 100.887 1
4 4 17 981.575 103.118 2
5 -4 17 141.006 87.4929 1
-9 -5 17 -6.6236 37.4629 3
-8 -5 17 70.2754 39.7066 3
-7 -5 17 -80.613 98.2473 1
-7 -5 17 57.5312 38.2217 3
-6 -5 17 170.199 44.3073 3
-6 -5 17 261.798 88.7934 1
-5 -5 17 216.722 80.8044 1
-5 -5 17 359.212 48.7635 3
-4 -5 17 617.805 67.2926 3
-4 -5 17 580.929 90.8682 1
-3 -5 17 326.102 80.4576 1
-2 -5 17 44.331 69.1556 1
-1 -5 17 136.829 72.2535 1
0 -5 17 278.137 76.4891 1
1 -5 17 383.918 76.0762 1
2 -5 17 545.84 90.1555 1
-4 -6 17 -90.981 80.4688 1
-3 -6 17 348.739 93.1127 1
13 0 -18 221.939 114.952 2
12 0 -18 148.976 76.1976 2
11 0 -18 94.8325 65.8305 2
10 0 -18 268.663 62.0993 2
9 0 -18 53.8589 50.638 2
-9 0 18 61.6259 84.1494 1
-8 0 18 1044.03 116.895 1
8 0 -18 1204.43 94.6034 2
7 0 -18 -69.027 44.6955 2
-7 0 18 31.172 68.5 1
-6 0 18 178.83 69.6167 1
-5 0 18 -64.624 60.1812 1
5 0 -18 -13.983 52.3793 2
4 0 -18 436.721 69.6811 2
-4 0 18 408 82.4011 1
-3 0 18 -36.813 59.3851 1
2 0 -18 1661.87 99.0717 2
-2 0 18 1549.68 132.062 1
-1 0 18 -52.719 59.4334 1
1 0 -18 67.9023 46.4653 2
0 0 -18 228.2 52.8928 2
0 0 18 282.145 73.2713 1
0 0 18 249.829 44.6678 2
1 0 18 -57.033 38.1239 2
1 0 18 37.073 67.0286 1
-1 0 -18 10.7505 46.3723 2
2 0 18 469.04 63.2686 2
-2 0 -18 440.742 66.246 2
2 0 18 529.336 88.9099 1
3 0 18 7.09771 48.5053 2
-3 0 -18 116.23 55.6283 2
4 0 18 1005.35 109.233 2
-4 0 -18 772.783 107.132 2
5 0 18 93.1784 66.1093 2
-5 0 -18 -18.005 60.8528 2
6 0 18 136.655 80.5748 2
7 0 18 -40.884 89.0348 2
-13 -1 18 267.401 42.1216 3
13 1 -18 135.249 104.93 2
-12 -1 18 87.8119 33.4719 3
12 1 -18 13.5592 89.004 2
-11 -1 18 549.223 57.8146 3
11 1 -18 653.398 97.1015 2
10 -1 -18 127.98 54.0843 2
-10 -1 18 82.9757 29.7084 3
10 1 -18 166.116 68.7321 2
-9 -1 18 -0.029 83.5717 1
9 -1 -18 95.7086 49.2047 2
9 1 -18 2.79582 60.8283 2
-9 1 18 -73.751 82.932 1
-8 -1 18 -119.79 71.9743 1
-8 1 18 56.9701 77.6126 1
8 1 -18 -108.96 52.8651 2
7 -1 -18 316.272 49.5754 2
-7 -1 18 351.092 83.6472 1
7 1 -18 243.168 58.0378 2
-7 1 18 311.638 80.3943 1
6 -1 -18 274.138 43.4622 2
-6 -1 18 298.777 73.6772 1
-6 1 18 276.903 76.4609 1
6 1 -18 267.716 56.5316 2
-5 -1 18 734.335 98.523 1
5 -1 -18 885.223 69.0688 2
-5 1 18 936.196 125.199 1
5 1 -18 740.362 91.8753 2
4 -1 -18 174.062 41.4383 2
-4 -1 18 221.755 74.8242 1
4 1 -18 232.123 56.3314 2
-4 1 18 125.022 66.6595 1
3 -1 -18 296.731 47.0379 2
-3 -1 18 292.69 76.6495 1
-3 1 18 199.717 69.9966 1
3 1 -18 390.866 59.4116 2
2 -1 -18 3.92757 35.1446 2
-2 -1 18 57.7512 64.0127 1
2 1 -18 -20.938 44.8423 2
-2 1 18 42.3299 62.6407 1
1 -1 -18 412.564 53.1682 2
-1 -1 18 442.608 80.7172 1
1 1 -18 353.307 61.9561 2
-1 1 18 454.979 84.5489 1
0 -1 18 452.876 60.4085 2
0 -1 -18 409.318 56.8942 2
0 -1 18 275.624 70.343 1
0 1 -18 442.818 62.783 2
0 1 18 312.983 44.7191 2
0 1 18 319.897 74.6737 1
1 -1 18 1051.48 89.7496 2
1 -1 18 1084.51 125.882 1
-1 1 -18 1093.19 107.643 2
-2 -1 -18 168.999 51.2341 2
2 -1 18 182.841 58.8503 2
2 -1 18 311.465 75.4754 1
-2 1 -18 234.581 64.7912 2
2 1 18 70.6037 44.8189 2
3 -1 18 358.194 83.665 1
3 -1 18 309.656 68.9257 2
-3 1 -18 186.212 70.8226 2
3 1 18 353.017 62.9831 2
4 -1 18 141.696 78.06 1
4 -1 18 48.1143 61.3717 2
-4 1 -18 111.287 65.5627 2
4 1 18 1.71516 53.8934 2
5 -1 18 174.622 70.2958 2
5 -1 18 259.782 85.9056 1
5 1 18 106.893 68.1884 2
-5 1 -18 232.488 79.5401 2
6 -1 18 64.1102 78.1851 2
6 1 18 7.73411 75.9368 2
-6 1 -18 152.2 83.5912 2
7 1 18 982.633 117.616 2
8 1 18 171.322 104.899 2
-12 -2 18 98.9456 36.9736 3
12 2 -18 71.0754 108.179 2
-11 -2 18 102.919 31.2611 3
11 2 -18 158.371 94.3245 2
-10 -2 18 79.7275 27.6697 3
10 2 -18 140.106 83.9237 2
-9 -2 18 551.405 157.522 1
-9 -2 18 445.354 46.6453 3
9 2 -18 546.262 86.803 2
-9 2 18 329.62 101.281 1
-8 -2 18 138.475 83.5836 1
-8 2 18 336.204 98.9664 1
8 2 -18 317.724 74.0903 2
7 -2 -18 299.009 38.0145 2
-7 -2 18 283.892 88.7422 1
7 2 -18 405.816 73.4943 2
-7 2 18 216.201 83.5224 1
-6 -2 18 -29.759 66.9267 1
6 2 -18 -52.189 54.3015 2
-6 2 18 -6.4814 76.3328 1
5 -2 -18 -30.728 26.5589 2
-5 -2 18 25.5442 62.8337 1
-5 2 18 -19.942 68.0737 1
5 2 -18 50.4111 53.128 2
-4 -2 18 92.7063 71.6663 1
4 -2 -18 198.774 32.5939 2
-4 2 18 232.848 78.4213 1
4 2 -18 183.675 60.6893 2
3 -2 -18 734.728 54.3029 2
-3 -2 18 626.299 88.3556 1
-3 2 18 572.842 90.7151 1
3 2 -18 805.067 98.2757 2
2 -2 -18 275.851 37.221 2
-2 -2 18 307.22 80.5988 1
-2 2 18 226.044 76.2301 1
2 2 -18 414.998 68.7811 2
-1 -2 18 408.444 82.7881 1
-1 2 18 463.971 86.7378 1
1 2 -18 694.352 82.9111 2
0 -2 18 44.0505 66.8907 1
0 -2 18 7.9994 45.1259 2
0 2 -18 182.218 61.4336 2
1 -2 18 2.327 47.2953 2
1 -2 18 -24.08 67.6397 1
1 2 18 1.7388 34.229 2
-1 2 -18 143.507 61.3995 2
2 -2 18 132.578 58.9393 2
2 -2 18 59.4447 72.3749 1
-2 2 -18 93.2545 66.7301 2
2 2 18 109.585 41.1363 2
3 -2 18 694.271 87.4166 2
3 -2 18 877.615 100.83 1
-3 2 -18 776.7 101.552 2
3 2 18 600.763 80.3866 2
4 -2 18 426.681 80.9596 2
4 -2 18 382.809 79.643 1
-4 2 -18 442.713 94.939 2
4 2 18 451.439 70.277 2
5 -2 18 825.952 105.596 1
5 -2 18 717.065 104.289 2
-5 2 -18 750.112 108.445 2
5 2 18 605.598 86.8135 2
6 -2 18 -98.611 81.0205 1
6 2 18 -7.4149 76.5616 2
7 -2 18 26.3721 90.8773 1
7 2 18 53.9449 88.9967 2
8 -2 18 275.462 136.099 1
8 2 18 340.215 112.911 2
-11 -3 18 -9.393 35.7168 3
-10 -3 18 538.573 56.1289 3
-9 -3 18 67.537 29.4704 3
9 3 -18 -77.684 81.4335 2
-8 -3 18 12.6423 32.2036 3
-8 -3 18 -109.77 95.7628 1
8 3 -18 24.2789 74.0383 2
-8 3 18 41.4822 135.422 1
-7 -3 18 -143.1 76.1166 1
-7 3 18 -119.67 80.3228 1
7 3 -18 -21.082 70.1508 2
-6 -3 18 1058.48 136.613 1
-6 3 18 753.26 112.062 1
6 3 -18 695.268 90.8042 2
-5 -3 18 122.432 70.8643 1
-5 3 18 13.5326 87.9069 1
5 3 -18 13.8768 68.9767 2
-4 -3 18 827.722 104.291 1
-4 3 18 613.268 101.83 1
4 3 -18 630.569 87.6133 2
-3 -3 18 34.3882 66.5896 1
3 3 -18 34.3684 61.2468 2
-3 3 18 -18.095 80.5725 1
-2 -3 18 -31.997 64.3241 1
-2 3 18 28.5469 80.3289 1
2 3 -18 31.5978 64.0093 2
-1 -3 18 75.485 65.7548 1
1 3 -18 59.4168 65.9744 2
0 -3 18 783.016 99.5943 1
0 3 -18 892.15 102.173 2
1 -3 18 27.7733 70.8714 1
1 -3 18 44.0424 55.8992 2
-1 3 -18 -120.02 68.3463 2
2 -3 18 753.38 97.0325 1
2 -3 18 550.314 78.9067 2
2 3 18 759.194 68.529 2
-2 3 -18 1164.98 148.107 2
3 -3 18 -34.332 77.4555 1
3 -3 18 78.9178 70.4552 2
3 3 18 12.1534 44.6057 2
-3 3 -18 -14.044 88.9443 2
4 -3 18 -25.826 78.3998 1
5 -3 18 98.1583 83.0879 1
5 3 18 7.7867 66.8194 2
6 -3 18 604.889 111.945 1
6 3 18 664.763 94.9024 2
-10 -4 18 73.3274 39.0173 3
-9 -4 18 400.857 49.4085 3
-8 -4 18 62.6708 39.0761 3
-7 -4 18 544.941 161.111 1
-7 -4 18 372.026 45.5308 3
-6 -4 18 -27.164 38.7977 3
-6 -4 18 43.8993 87.2797 1
-5 -4 18 45.0877 79.1469 1
5 4 -18 140.659 92.614 2
-4 -4 18 88.3788 78.9921 1
4 4 -18 -16.148 82.0917 2
-3 -4 18 555.543 91.955 1
3 4 -18 631.447 101.279 2
-2 -4 18 1.46658 72.7001 1
2 4 -18 321.767 93.4992 2
-1 -4 18 544.049 92.1421 1
1 4 -18 300.048 106.197 2
0 -4 18 -166.21 71.4951 1
1 -4 18 -11.874 77.2287 1
2 -4 18 200.966 79.5076 1
3 -4 18 806.139 99.2157 1
-7 -5 18 134.057 48.4774 3
-6 -5 18 340.006 52.1886 3
-5 -5 18 455.148 56.2586 3
-5 -5 18 329.57 104.43 1
-4 -5 18 180.702 92.3147 1
-3 -5 18 129.088 89.1326 1
-2 -5 18 85.1787 83.7794 1
-1 -5 18 185.415 94.5232 1
0 -5 18 452.393 96.1791 1
-12 0 19 20.4994 34.1651 3
11 0 -19 64.1431 80.5764 2
10 0 -19 -77.129 66.6459 2
9 0 -19 848.656 111.181 2
8 0 -19 24.2375 57.9812 2
-7 0 19 250.115 85.9332 1
7 0 -19 340.065 60.5173 2
-6 0 19 -156.69 77.2101 1
6 0 -19 -46.536 47.5913 2
5 0 -19 220.17 55.7351 2
-5 0 19 120.101 78.4002 1
-4 0 19 -102.82 70.3064 1
4 0 -19 25.1678 46.1111 2
3 0 -19 1181.37 97.8003 2
-3 0 19 1203.32 137.329 1
-2 0 19 210.939 73.5468 1
2 0 -19 -11.375 52.3178 2
1 0 -19 668.176 91.9298 2
-1 0 19 744.02 105.503 1
0 0 19 -76.977 73.8651 1
0 0 19 21.0466 43.8042 2
0 0 -19 45.6981 56.7374 2
-1 0 -19 68.7935 55.5742 2
1 0 19 129.747 80.9789 1
1 0 19 20.6438 48.3718 2
2 0 19 0.72916 79.3479 1
2 0 19 -17.208 51.7518 2
-2 0 -19 -45.186 60.2764 2
3 0 19 926.598 108.007 2
3 0 19 1012.37 114.788 1
-3 0 -19 1029.93 122.589 2
-4 0 -19 -19.371 67.1567 2
4 0 19 -41.261 63.1616 2
-5 0 -19 237.477 87.0419 2
5 0 19 381.336 89.1923 2
6 0 19 -100.54 87.1729 2
-12 -1 19 680.886 70.7013 3
12 1 -19 770.663 126.814 2
-11 -1 19 118.23 34.4219 3
11 1 -19 24.4809 88.6027 2
10 1 -19 329.127 84.4105 2
9 -1 -19 48.4795 56.7301 2
9 1 -19 70.5552 72.493 2
8 -1 -19 102.608 52.5766 2
8 1 -19 25.7029 62.8325 2
-7 -1 19 24.2747 86.268 1
7 -1 -19 88.3987 50.3846 2
-7 1 19 177.123 88.0146 1
7 1 -19 113.081 66.7923 2
-6 -1 19 527.976 96.242 1
6 -1 -19 656.541 78.2977 2
-6 1 19 518.077 108.154 1
6 1 -19 631.418 82.1649 2
5 -1 -19 194.661 47.7111 2
-5 -1 19 250.236 77.1123 1
5 1 -19 202.961 61.1059 2
-5 1 19 69.189 80.677 1
-4 -1 19 502.314 99.3024 1
4 -1 -19 539.5 60.3884 2
-4 1 19 520.47 95.8611 1
4 1 -19 489.487 75.0488 2
3 -1 -19 -16.923 42.6237 2
-3 -1 19 162.415 74.7781 1
3 1 -19 70.8715 59.8119 2
-3 1 19 71.0666 78.07 1
2 -1 -19 149.327 48.4483 2
-2 -1 19 141.678 75.8323 1
-2 1 19 4.75161 74.7237 1
2 1 -19 200.868 58.1289 2
-1 -1 19 274.95 83.6731 1
1 -1 -19 135.47 49.0888 2
-1 1 19 308.189 83.375 1
1 1 -19 200.336 63.7267 2
0 -1 -19 1020.4 90.4007 2
0 -1 19 873.644 111.796 1
0 -1 19 737.463 95.7715 2
0 1 19 805.564 113.833 1
0 1 -19 1043.09 119.055 2
1 -1 19 103.078 57.7405 2
-1 -1 -19 221.534 54.2392 2
1 -1 19 308.251 81.4008 1
-1 1 -19 348.472 76.5835 2
1 1 19 198.12 51.3759 2
1 1 19 98.7566 80.4026 1
-2 -1 -19 446.608 63.2645 2
2 -1 19 286.59 94.2928 1
2 -1 19 375.737 74.0036 2
2 1 19 475.345 63.2677 2
-2 1 -19 522.554 85.6282 2
3 -1 19 -56.384 60.4032 2
3 -1 19 58.4967 80.5758 1
3 1 19 51.0111 51.9757 2
-3 1 -19 34.8342 74.7407 2
4 -1 19 77.1857 66.6361 2
4 -1 19 124.192 85.1576 1
-4 1 -19 134.068 84.583 2
4 1 19 4.71567 63.7446 2
5 -1 19 -65.15 80.506 2
5 -1 19 218.308 93.8702 1
-5 1 -19 35.2903 95.6855 2
5 1 19 97.5144 76.506 2
6 -1 19 714.058 123.957 1
6 1 19 617.14 109.393 2
7 -1 19 210.891 114.253 1
7 1 19 309.252 110.248 2
-11 -2 19 -21.179 31.7413 3
11 2 -19 39.7789 114.947 2
10 2 -19 261.792 99.5317 2
9 2 -19 159.835 90.7117 2
8 2 -19 355.998 86.2135 2
-7 -2 19 187.559 96.4859 1
7 2 -19 113.385 72.3942 2
-6 -2 19 -37.375 80.4522 1
-6 2 19 45.537 91.5482 1
6 2 -19 -55.013 65.5972 2
-5 -2 19 93.6515 78.3705 1
5 2 -19 68.355 73.6149 2
-5 2 19 125.961 90.4023 1
4 -2 -19 488.687 56.6491 2
-4 -2 19 346.695 82.5165 1
-4 2 19 358.841 94.4801 1
4 2 -19 521.549 80.833 2
-3 -2 19 214.432 80.5847 1
3 -2 -19 243.17 37.9726 2
3 2 -19 498.789 82.2839 2
-3 2 19 244.631 92.5988 1
-2 -2 19 493.996 90.426 1
2 2 -19 676.902 89.9754 2
-2 2 19 445.078 100.904 1
-1 -2 19 16.9214 80.1598 1
1 2 -19 127.784 74.9485 2
-1 2 19 279.571 86.2373 1
0 -2 19 71.3491 82.47 1
0 2 -19 31.5338 71.3716 2
1 -2 19 62.0268 77.7156 1
1 -2 19 93.717 57.7004 2
1 2 19 121.096 41.5353 2
-1 2 -19 156.583 83.585 2
2 -2 19 440.869 79.7244 2
2 -2 19 325.847 94.764 1
-2 2 -19 629.718 99.9036 2
3 -2 19 375.946 86.2215 2
3 -2 19 432.483 94.6837 1
3 2 19 333.252 63.3268 2
-3 2 -19 387.671 99.1358 2
4 -2 19 644.634 115.797 1
4 -2 19 512.097 93.1789 2
4 2 19 721.04 84.2536 2
-4 2 -19 595.161 128.934 2
5 -2 19 36.5571 94.4503 1
5 2 19 119.561 79.1615 2
6 -2 19 -70.902 105.433 1
6 2 19 113.176 92.9593 2
-10 -3 19 40.5461 35.1975 3
-9 -3 19 71.5316 37.0386 3
8 3 -19 7.62887 113.176 2
7 3 -19 248.328 89.2463 2
-6 -3 19 35.3811 90.0687 1
6 3 -19 64.5901 82.3557 2
-5 -3 19 965.933 112.416 1
5 3 -19 859.285 107.749 2
-4 -3 19 180.762 90.9623 1
4 3 -19 60.7982 83.6021 2
-3 -3 19 23.6471 76.4506 1
3 3 -19 9.46967 77.3309 2
-2 -3 19 27.2615 80.919 1
2 3 -19 57.8654 80.691 2
-1 -3 19 402.051 92.8355 1
1 3 -19 556.202 102.159 2
0 -3 19 111.334 77.8228 1
0 3 -19 -31.776 87.7342 2
1 -3 19 935.336 128.18 2
1 -3 19 1051.93 142.506 1
-1 3 -19 768.276 117.298 2
2 -3 19 -147.03 84.077 1
3 -3 19 384.043 96.1855 1
4 -3 19 -27.442 106.084 1
5 -3 19 300.54 123.186 1
-8 -4 19 377.439 51.9564 3
-7 -4 19 -28.808 43.1158 3
-5 -4 19 74.2947 102.759 1
-4 -4 19 402.161 103.879 1
-3 -4 19 134.036 91.2205 1
-2 -4 19 551.248 104.577 1
-1 -4 19 53.4679 89.6692 1
0 -4 19 -34.484 89.8391 1
1 -4 19 155.558 93.8207 1
2 -4 19 486.549 107.958 1
9 0 -20 -30.927 71.0092 2
8 0 -20 445.431 80.3052 2
7 0 -20 -77.639 60.8589 2
6 0 -20 66.5503 65.9904 2
5 0 -20 75.2488 62.8687 2
4 0 -20 689.444 81.433 2
-4 0 20 584.565 104.547 1
-3 0 20 -90.132 86.8601 1
3 0 -20 -4.0822 59.4817 2
2 0 -20 1142.04 115.482 2
-2 0 20 934.786 122.963 1
1 0 -20 -107.26 60.9352 2
-1 0 20 22.0305 89.6831 1
0 0 -20 143.73 66.0408 2
0 0 20 74.5735 91.2406 1
1 0 20 34.5898 53.5655 2
-1 0 -20 -54.252 67.6557 2
1 0 20 89.211 93.6141 1
2 0 20 687.237 86.9485 2
-2 0 -20 777.004 95.8286 2
3 0 20 12.0227 71.5035 2
-3 0 -20 26.6953 85.8917 2
3 0 20 -105.01 169.004 1
-4 0 -20 536.499 106.25 2
4 0 20 736.082 97.0634 2
5 0 20 -11.43 86.1358 2
10 1 -20 -23.584 93.2585 2
9 1 -20 2.18796 86.4731 2
8 1 -20 -102.04 77.0479 2
7 -1 -20 585.64 109.133 2
7 1 -20 429.859 88.6545 2
6 -1 -20 174.377 58.8192 2
6 1 -20 -0.3772 71.2125 2
-5 -1 20 553.697 136.074 1
5 -1 -20 502.35 65.8103 2
5 1 -20 407.673 85.928 2
-4 -1 20 6.36956 92.0284 1
4 -1 -20 111.597 54.2271 2
4 1 -20 162.951 71.8609 2
-3 -1 20 30.4534 93.9681 1
3 -1 -20 -50.194 50.7224 2
3 1 -20 52.3453 64.7329 2
-2 -1 20 28.4066 85.3826 1
-2 1 20 -24.886 118.851 1
2 1 -20 48.4206 72.968 2
-1 -1 20 572.765 101.892 1
1 -1 -20 663.852 71.3345 2
1 1 -20 677.902 97.8687 2
-1 1 20 853.972 167.727 1
0 -1 -20 253.323 66.1909 2
0 -1 20 329.823 95.6496 1
0 1 -20 269.751 83.9902 2
1 -1 20 405.122 74.2837 2
-1 -1 -20 506.759 74.3936 2
1 -1 20 434.732 96.9204 1
-1 1 -20 513.802 97.8611 2
1 1 20 469.99 65.6755 2
2 -1 20 100.131 89.4983 1
2 -1 20 -34.861 69.374 2
-2 1 -20 -25.366 88.0979 2
2 1 20 71.5057 61.0702 2
3 -1 20 -3.9349 75.3724 2
3 -1 20 -215.5 104.357 1
-3 1 -20 -9.3324 93.6623 2
3 1 20 -13.41 66.7445 2
4 -1 20 -18.094 98.1209 1
4 -1 20 -79.829 82.9827 2
-4 1 -20 46.7156 99.498 2
4 1 20 107.129 77.3471 2
5 1 20 607.902 98.3603 2
9 2 -20 79.5283 109.192 2
8 2 -20 34.3682 97.048 2
7 2 -20 17.3839 86.2562 2
6 2 -20 -83.197 85.5825 2
5 2 -20 376.773 96.3567 2
-4 -2 20 74.1627 91.8531 1
4 2 -20 199.188 89.8063 2
-3 -2 20 363.033 103.541 1
3 2 -20 508.137 92.1717 2
-2 -2 20 84.3437 87.8945 1
2 2 -20 201.01 88.4155 2
-1 -2 20 128.138 91.0876 1
1 2 -20 165.777 89.4727 2
0 -2 20 -72.83 93.1167 1
0 2 -20 31.9054 91.4855 2
1 -2 20 211.391 97.1292 1
1 -2 20 153.85 74.7717 2
-1 2 -20 154.502 106.789 2
2 -2 20 456.721 113.222 1
2 -2 20 161.664 81.6254 2
2 2 20 179.639 63.903 2
-2 2 -20 369.754 119.496 2
3 -2 20 662.716 116.511 1
3 2 20 668.629 138.444 2
4 -2 20 177.714 109.2 1
4 3 -20 450.735 181.92 2
-3 -3 20 8.0256 95.4512 1
3 3 -20 4.35053 155.301 2
-2 -3 20 200.674 98.7858 1
-1 -3 20 -41.144 95.5901 1
0 -3 20 745.576 118.09 1
1 -3 20 141.073 103.884 1
2 -3 20 98.8211 107.389 1
3 -3 20 121.916 114.029 1
-2 -4 20 65.5938 109.1 1
-1 -4 20 99.5355 110.193 1
6 0 -21 -46.953 73.3937 2
5 0 -21 466.376 85.4076 2
4 0 -21 -64.612 73.7175 2
3 0 -21 1214.02 140.477 2
2 0 -21 38.8457 72.3484 2
1 0 -21 166.218 80.9366 2
0 0 -21 72.9977 81.723 2
1 0 21 178.15 72.2531 2
-1 0 -21 263.024 93.8131 2
-2 0 -21 20.8016 96.3378 2
2 0 21 -15.554 77.1103 2
-3 0 -21 650.418 114.012 2
3 0 21 707.966 103.233 2
8 1 -21 192.34 103.949 2
7 1 -21 199.44 95.6178 2
6 1 -21 662.383 107.232 2
5 1 -21 55.0632 93.0156 2
4 1 -21 284.78 91.5214 2
3 1 -21 -73.524 84.8805 2
2 -1 -21 421.58 96.7296 2
2 1 -21 378.355 95.9921 2
1 -1 -21 176.654 75.0698 2
1 1 -21 258.632 102.22 2
0 -1 -21 440.729 85.0825 2
0 1 -21 619.98 117.272 2
1 -1 21 22.7414 76.4787 2
-1 -1 -21 -37.545 78.6407 2
-1 1 -21 300.532 109.037 2
2 -1 21 94.1786 79.6872 2
2 1 21 141.805 72.0119 2
-2 1 -21 -66.267 111.383 2
3 1 21 -4.1841 83.2408 2
7 2 -21 -103.54 115.632 2
6 2 -21 126.372 109.348 2
5 2 -21 -46.614 106.327 2
4 2 -21 680.29 121.191 2
3 2 -21 465.596 118.267 2
2 2 -21 67.6436 103.546 2
1 2 -21 52.4803 108.984 2
4 1 -22 44.5133 110.244 2
3 1 -22 256.116 117.578 2
2 1 -22 291.529 120.403 2
1 1 -22 651.597 129.602 2

_iucr_refine_instructions_details 
;

    sion1feb2.res created by SHELXL-2014/7

TITL Sion1Feb2_a.res in P2(1)/n
REM Old TITL Sion1Feb2.hkl
REM SHELXT solution in P2(1)/n
REM R1 0.073, Rweak 0.004, Alpha 0.039, Orientation as input
REM Formula found by SHELXT: C5 N O5 Tb
CELL 0.71073 13.3878 6.6366 15.5669 90 98.599 90
ZERR 4 0.0027 0.0012 0.0024 0 0.014 0
LATT 1
SYMM 0.5-X,0.5+Y,0.5-Z
SFAC C H N O Tb
UNIT 44 40 4 28 4
EQIV $1 +X,1+Y,+Z
EQIV $2 0.5-X,0.5+Y,0.5-Z
SADI N1 C2B N1 C3B
SADI N1 C2A N1 C3A
FLAT N1 C3A C1A C2A
FLAT N1 C1B C2B C3B
ISOR 0.0075 0.015 C3B C2A C3A C2B
ISOR 0.01 0.02 O1B
ISOR 0.003 0.006 O1A
 
L.S. 30
PLAN  50
TEMP 20(2)
MPLA C3 C4 C3_$1 C4_$1
MPLA C13 C14 C13_$1 C14_$1
RTAB TbTb Tb1 Tb1_$2
BOND $H
LIST 4
MORE -1
CONF
fmap 2
acta 52
OMIT 12 2 14
REM <olex2.extras>
REM <HklSrc "%.\\Sion1Feb2.hkl">
REM </olex2.extras>
 
WGHT    0.004700    2.240600
FVAR       0.35434   0.58850   0.82999
TB1   5    0.331342    0.578664    0.287517    11.00000    0.01185    0.00805 =
         0.00861   -0.00035   -0.00097   -0.00166
PART 1
O1A   4   -0.044542    0.157185    0.400986    31.00000    0.05324    0.04263 =
         0.05729   -0.03712    0.03959   -0.02646
AFIX 147
H1A   2    0.000800    0.128331    0.373100    31.00000   -1.50000
AFIX   0
PART 0
PART 2
O1B   4   -0.133303    0.202814    0.531111   -31.00000    0.05550    0.04122 =
         0.07130   -0.03271    0.04847   -0.02246
AFIX 147
H1B   2   -0.158090    0.223060    0.575422   -31.00000   -1.50000
AFIX   0
PART 0
O2    4    0.434577    0.665819    0.401772    11.00000    0.03223    0.00832 =
         0.02383   -0.00693   -0.01811    0.00404
O3    4    0.481375    0.419650    0.254643    11.00000    0.02678    0.03571 =
         0.04402    0.00544    0.00866    0.01275
O7    4    0.713010    1.090837    0.676388    11.00000    0.01714    0.00742 =
         0.01469   -0.00355   -0.00572   -0.00042
O8    4    0.679978    0.769801    0.673508    11.00000    0.02085    0.00764 =
         0.01676    0.00321   -0.01097    0.00191
O9    4    0.191871    0.544012    0.359062    11.00000    0.02753    0.02070 =
         0.03193   -0.00737    0.02082   -0.00854
O11   4    0.102905    0.266554    0.318804    11.00000    0.03534    0.02768 =
         0.03515   -0.01704    0.02200   -0.01230
N1    3    0.624468    0.257130    0.311561    11.00000    0.03569    0.06747 =
         0.08201    0.01163   -0.00093    0.01487
PART 2
C1A   1    0.536086    0.279350    0.263298   -21.00000    0.03608    0.04418 =
         0.05297   -0.00779    0.01017    0.01279
AFIX  43
H1AA  2    0.512876    0.166713    0.230757   -21.00000   -1.20000
AFIX   0
PART 0
PART 1
C1B   1    0.555429    0.378619    0.313836    21.00000    0.03351    0.04819 =
         0.04728    0.01549    0.01622    0.01153
AFIX  43
H1BA  2    0.557432    0.449997    0.365477    21.00000   -1.20000
AFIX   0
PART 0
PART 2
C2A   1    0.679054    0.070386    0.328941   -21.00000    0.08307    0.08983 =
         0.11460    0.01284    0.00695    0.04208
AFIX 137
H2AA  2    0.670068    0.021326    0.385295   -21.00000   -1.50000
H2AB  2    0.749597    0.093030    0.327450   -21.00000   -1.50000
H2AC  2    0.653795   -0.027381    0.285637   -21.00000   -1.50000
AFIX   0
PART 0
PART 1
C2B   1    0.624293    0.144869    0.228062    21.00000    0.11536    0.13569 =
         0.14828   -0.06498   -0.01193    0.04131
AFIX 137
H2BA  2    0.591775    0.016826    0.231532    21.00000   -1.50000
H2BB  2    0.692603    0.124163    0.218108    21.00000   -1.50000
H2BC  2    0.588390    0.221672    0.181032    21.00000   -1.50000
AFIX   0
PART 0
C3    1    0.464048    0.828562    0.448372    11.00000    0.01967    0.01220 =
         0.01375   -0.00138   -0.00524   -0.00421
PART 2
C3A   1    0.655186    0.431084    0.372953   -21.00000    0.06689    0.10953 =
         0.08964   -0.00802   -0.00707   -0.01096
AFIX 137
H3AA  2    0.626875    0.553995    0.347454   -21.00000   -1.50000
H3AB  2    0.727504    0.441651    0.383319   -21.00000   -1.50000
H3AC  2    0.630633    0.407777    0.426966   -21.00000   -1.50000
AFIX   0
PART 0
PART 1
C3B   1    0.705728    0.196244    0.378937    21.00000    0.06111    0.11394 =
         0.09230    0.02308   -0.00226    0.04475
AFIX 137
H3BA  2    0.711212    0.290898    0.426043    21.00000   -1.50000
H3BB  2    0.768123    0.192863    0.355561    21.00000   -1.50000
H3BC  2    0.691609    0.064692    0.399783    21.00000   -1.50000
AFIX   0
PART 0
C4    1    0.540705    0.810206    0.519826    11.00000    0.01773    0.00599 =
         0.02188    0.00096   -0.00785    0.00210
AFIX  43
H4    2    0.568245    0.683735    0.534021    11.00000   -1.20000
AFIX   0
C5    1    0.577165    0.976451    0.570561    11.00000    0.01737    0.01129 =
         0.01256    0.00211   -0.00359    0.00099
C6    1    0.658703    0.942888    0.642545    11.00000    0.01317    0.00860 =
         0.01075   -0.00032   -0.00001   -0.00107
C10   1    0.123103    0.421381    0.366746    11.00000    0.02367    0.02075 =
         0.02210   -0.00547    0.00975    0.00213
C12   1    0.059219    0.458322    0.435481    11.00000    0.02581    0.02044 =
         0.02586   -0.00851    0.01734   -0.00973
C13   1   -0.017613    0.325526    0.450405    11.00000    0.04172    0.02482 =
         0.03626   -0.02199    0.02377   -0.01545
PART 2
AFIX  43
H13   2   -0.029593    0.209213    0.417140   -31.00000   -1.20000
AFIX   0
PART 0
C14   1   -0.075747    0.367326    0.514663    11.00000    0.03634    0.02601 =
         0.03390   -0.01283    0.02014   -0.01552
PART 1
AFIX  43
H14   2   -0.126336    0.278094    0.524632    31.00000   -1.20000
AFIX   0
HKLF 4
 
REM  Sion1Feb2_a.res in P2(1)/n
REM R1 =  0.0369 for    3034 Fo > 4sig(Fo)  and  0.0681 for all    4070 data
REM    225 parameters refined using     40 restraints
 
END  
     
WGHT      0.0047      2.2408 

REM Highest difference peak  0.910,  deepest hole -1.001,  1-sigma level  0.234
Q1    1   0.4435  0.7599  0.4325  11.00000  0.05    0.91
Q2    1   0.6182  0.1822  0.1473  11.00000  0.05    0.88
Q3    1   0.2756  0.6393  0.2409  11.00000  0.05    0.87
Q4    1   0.4405  0.0173  0.2467  11.00000  0.05    0.86
Q5    1   0.7178 -0.0998  0.4610  11.00000  0.05    0.86
Q6    1   0.3801  0.7821  0.3553  11.00000  0.05    0.85
Q7    1   0.1068  0.1921  0.4712  11.00000  0.05    0.84
Q8    1   0.7449  0.4583  0.4966  11.00000  0.05    0.84
Q9    1   0.0209  0.4162  0.4514  11.00000  0.05    0.82
Q10   1   0.6142  0.6550  0.6295  11.00000  0.05    0.82
Q11   1   0.6769  0.8367  0.6498  11.00000  0.05    0.80
Q12   1  -0.1771 -0.0899  0.5553  11.00000  0.05    0.80
Q13   1   0.7174  0.7569  0.6337  11.00000  0.05    0.79
Q14   1   0.0388  0.0392  0.4341  11.00000  0.05    0.79
Q15   1   0.5601  0.8592  0.5711  11.00000  0.05    0.78
Q16   1  -0.1570  0.3750  0.5117  11.00000  0.05    0.78
Q17   1   0.5644  0.4150  0.3967  11.00000  0.05    0.78
Q18   1  -0.1365  0.4170  0.4193  11.00000  0.05    0.77
Q19   1  -0.0653  0.2401  0.3599  11.00000  0.05    0.77
Q20   1   0.2930  0.5278  0.2503  11.00000  0.05    0.77
Q21   1   0.4818  0.8582  0.4248  11.00000  0.05    0.77
Q22   1   0.0607  0.3930  0.2543  11.00000  0.05    0.77
Q23   1   0.7194  1.1568  0.7206  11.00000  0.05    0.76
Q24   1   0.6578  1.0809  0.6573  11.00000  0.05    0.76
Q25   1   0.3708  0.7113  0.4101  11.00000  0.05    0.76
Q26   1   0.2229  0.6861  0.3677  11.00000  0.05    0.76
Q27   1   0.6186  0.0447  0.2863  11.00000  0.05    0.75
Q28   1  -0.1607 -0.1268  0.5152  11.00000  0.05    0.75
Q29   1  -0.0979  0.2922  0.6409  11.00000  0.05    0.75
Q30   1   0.0585  0.2585  0.2215  11.00000  0.05    0.75
Q31   1   0.7146  1.0914  0.7790  11.00000  0.05    0.75
Q32   1   0.7591  0.2436  0.2010  11.00000  0.05    0.74
Q33   1   0.3567  0.3597  0.1928  11.00000  0.05    0.74
Q34   1  -0.1810  0.0130  0.4592  11.00000  0.05    0.74
Q35   1   0.7344 -0.1160  0.3113  11.00000  0.05    0.74
Q36   1   0.5584 -0.0231  0.2491  11.00000  0.05    0.73
Q37   1  -0.2672  0.0660  0.5425  11.00000  0.05    0.73
Q38   1   0.7972  0.0778  0.3504  11.00000  0.05    0.73
Q39   1   0.6812  0.6781  0.6585  11.00000  0.05    0.73
Q40   1   0.0382  0.1598  0.4703  11.00000  0.05    0.72
Q41   1  -0.2291 -0.0538  0.5251  11.00000  0.05    0.72
Q42   1   0.6871  0.1807  0.1326  11.00000  0.05    0.72
Q43   1   0.1566  0.5056  0.3302  11.00000  0.05    0.72
Q44   1   0.5237  0.5319  0.4095  11.00000  0.05    0.71
Q45   1  -0.1705  0.2605  0.4862  11.00000  0.05    0.71
Q46   1  -0.1076  0.2213  0.5564  11.00000  0.05    0.71
Q47   1   0.6364  0.3047  0.1612  11.00000  0.05    0.71
Q48   1   0.8362  0.1335  0.2939  11.00000  0.05    0.70
Q49   1   0.5612  0.1419  0.1156  11.00000  0.05    0.70
Q50   1   0.7209  0.5599  0.3932  11.00000  0.05    0.70

  REM The information below was added by Olex2.
  REM
  REM R1 = 0.0369 for 3034 Fo > 4sig(Fo) and 0.0681 for all 15156 data
  REM n/a parameters refined using n/a restraints
  REM Highest difference peak 0.91, deepest hole -1.00
  REM Mean Shift 0, Max Shift -0.001.

  REM +++ Tabular Listing of Refinement Information +++
  REM R1_all = 0.0681
  REM R1_gt = 0.0369
  REM wR_ref = 0.0552
  REM GOOF = 1.055
  REM Shift_max = -0.001
  REM Shift_mean = 0
  REM Reflections_all = 15156
  REM Reflections_gt = 3034
  REM Parameters = n/a
  REM Hole = -1.00
  REM Peak = 0.91
  REM Flack = n/a

  
;
_olex2_submission_special_instructions 'No special instructions were received'
# start Validation Reply Form
_vrf_PLAT220_SION-1              
;
PROBLEM: Non-Solvent Resd 1   C   Ueq(max)/Ueq(min) Range       10.0 Ratio 
RESPONSE: Larger than usual U(eq)'s for carbon atoms are predominatly due to 
		  terminal disordered C2A, C2B, C3A, and C3B atoms, which belong to 
		  the DMF ligand with a considerable vibrational degree of freedom.
;
_vrf_PLAT430_SION-1              
;
PROBLEM: Short Inter D...A Contact  O7     ..  O8      ..       2.82 Ang.  
RESPONSE: O7 and O8 are both located in the coordination sphere of Tb1 as 
		  parts of a Tb(III)-O 1D chain. There is not any hydrogen bonding 
		  between them.
;
# end Validation Reply Form
