####################################################################### 
# 
# This file contains crystal structure data downloaded from the 
# Cambridge Structural Database (CSD) hosted by the Cambridge 
# Crystallographic Data Centre (CCDC).
# 
# Full information about CCDC data access policies and citation 
# guidelines are available at http://www.ccdc.cam.ac.uk/access/V1 
# 
# Audit and citation data items may have been added by the CCDC. 
# Please retain this information to preserve the provenance of 
# this file and to allow appropriate attribution of the data. 
# 
#######################################################################

data_hydrfe_360k
_audit_block_doi                 10.5517/ccdc.csd.cc1mk85m
_database_code_depnum_ccdc_archive 'CCDC 1506140'
loop_
_citation_id
_citation_doi
_citation_year
1 10.1039/C6CP06648H 2016
_audit_update_record             
;
2016-09-23 deposited with the CCDC.	2023-04-05 downloaded from the CCDC.
;

_audit_creation_method           SHELXL-2014/7
_shelx_SHELXL_version_number     2014/7
_chemical_name_systematic        ?
_chemical_name_common            ?
_chemical_melting_point          ?
_chemical_formula_moiety         ?
_chemical_formula_sum            'C3 H8 Fe N2 O6'
_chemical_formula_weight         223.96

loop_
_atom_type_symbol
_atom_type_description
_atom_type_scat_dispersion_real
_atom_type_scat_dispersion_imag
_atom_type_scat_source
C C 0.0033 0.0016 'International Tables Vol C Tables 4.2.6.8 and 6.1.1.4'
H H 0.0000 0.0000 'International Tables Vol C Tables 4.2.6.8 and 6.1.1.4'
Fe Fe 0.3463 0.8444 'International Tables Vol C Tables 4.2.6.8 and 6.1.1.4'
N N 0.0061 0.0033 'International Tables Vol C Tables 4.2.6.8 and 6.1.1.4'
O O 0.0106 0.0060 'International Tables Vol C Tables 4.2.6.8 and 6.1.1.4'

_space_group_crystal_system      orthorhombic
_space_group_IT_number           62
_space_group_name_H-M_alt        'P n m a'
_space_group_name_Hall           '-P 2ac 2n'

_shelx_space_group_comment       
;
The symmetry employed for this shelxl refinement is uniquely defined
by the following loop, which should always be used as a source of
symmetry information in preference to the above space-group names.
They are only intended as comments.
;

loop_
_space_group_symop_operation_xyz
'x, y, z'
'-x+1/2, -y, z+1/2'
'x+1/2, -y+1/2, -z+1/2'
'-x, y+1/2, -z'
'-x, -y, -z'
'x-1/2, y, -z-1/2'
'-x-1/2, y-1/2, z-1/2'
'x, -y-1/2, z'

_cell_length_a                   8.736(3)
_cell_length_b                   11.763(4)
_cell_length_c                   7.871(3)
_cell_angle_alpha                90
_cell_angle_beta                 90
_cell_angle_gamma                90
_cell_volume                     808.8(5)
_cell_formula_units_Z            4
_cell_measurement_temperature    360(2)
_cell_measurement_reflns_used    2161
_cell_measurement_theta_min      3.4690
_cell_measurement_theta_max      28.8540

_exptl_crystal_description       block
_exptl_crystal_colour            'light brown'
_exptl_crystal_density_meas      ?
_exptl_crystal_density_method    ?
_exptl_crystal_density_diffrn    1.839
_exptl_crystal_F_000             456
_exptl_transmission_factor_min   ?
_exptl_transmission_factor_max   ?
_exptl_crystal_size_max          0.203
_exptl_crystal_size_mid          0.173
_exptl_crystal_size_min          0.154
_exptl_absorpt_coefficient_mu    1.861
_shelx_estimated_absorpt_T_min   ?
_shelx_estimated_absorpt_T_max   ?
_exptl_absorpt_correction_type   analytical
_exptl_absorpt_correction_T_min  0.769
_exptl_absorpt_correction_T_max  0.813
_exptl_absorpt_process_details   
;
CrysAlisPro 1.171.38.34a (Rigaku Oxford Diffraction, 2015)
Analytical numeric absorption correction using a multifaceted crystal
			model based on expressions derived by R.C. Clark & J.S. Reid.
(Clark, R. C. & Reid, J. S. (1995). Acta Cryst. A51, 887-897)
Empirical absorption correction using spherical harmonics,
 implemented in SCALE3 ABSPACK scaling algorithm.
;
_exptl_absorpt_special_details   ?
_diffrn_ambient_temperature      360(2)
_diffrn_radiation_wavelength     0.71073
_diffrn_radiation_type           MoK\a
_diffrn_source                   'fine-focus sealed X-ray tube'
_diffrn_measurement_device_type  'Xcalibur, Atlas'
_diffrn_measurement_method       ?
_diffrn_detector_area_resol_mean 10.6249
_diffrn_reflns_number            4861
_diffrn_reflns_av_unetI/netI     0.0164
_diffrn_reflns_av_R_equivalents  0.0233
_diffrn_reflns_limit_h_min       -10
_diffrn_reflns_limit_h_max       10
_diffrn_reflns_limit_k_min       -14
_diffrn_reflns_limit_k_max       14
_diffrn_reflns_limit_l_min       -8
_diffrn_reflns_limit_l_max       9
_diffrn_reflns_theta_min         3.114
_diffrn_reflns_theta_max         25.990
_diffrn_reflns_theta_full        25.242
_diffrn_measured_fraction_theta_max 1.000
_diffrn_measured_fraction_theta_full 1.000
_diffrn_reflns_Laue_measured_fraction_max 1.000
_diffrn_reflns_Laue_measured_fraction_full 1.000
_diffrn_reflns_point_group_measured_fraction_max 1.000
_diffrn_reflns_point_group_measured_fraction_full 1.000
_reflns_number_total             842
_reflns_number_gt                655
_reflns_threshold_expression     'I > 2\s(I)'
_reflns_Friedel_coverage         0.000
_reflns_Friedel_fraction_max     .
_reflns_Friedel_fraction_full    .

_reflns_special_details          
;
 Reflections were merged by SHELXL according to the crystal
 class for the calculation of statistics and refinement.
 
 _reflns_Friedel_fraction is defined as the number of unique
 Friedel pairs measured divided by the number that would be
 possible theoretically, ignoring centric projections and
 systematic absences.
;

_computing_data_collection       ?
_computing_cell_refinement       ?
_computing_data_reduction        ?
_computing_structure_solution    ?
_computing_structure_refinement  'SHELXL-2014/7 (Sheldrick, 2014)'
_computing_molecular_graphics    ?
_computing_publication_material  ?
_refine_special_details          ?
_refine_ls_structure_factor_coef Fsqd
_refine_ls_matrix_type           full
_refine_ls_weighting_scheme      calc
_refine_ls_weighting_details     
'w=1/[\s^2^(Fo^2^)+(0.0426P)^2^+0.1378P] where P=(Fo^2^+2Fc^2^)/3'
_atom_sites_solution_primary     ?
_atom_sites_solution_secondary   ?
_atom_sites_solution_hydrogens   mixed
_refine_ls_hydrogen_treatment    mixed
_refine_ls_extinction_method     none
_refine_ls_extinction_coef       .
_refine_ls_number_reflns         842
_refine_ls_number_parameters     74
_refine_ls_number_restraints     4
_refine_ls_R_factor_all          0.0384
_refine_ls_R_factor_gt           0.0282
_refine_ls_wR_factor_ref         0.0788
_refine_ls_wR_factor_gt          0.0737
_refine_ls_goodness_of_fit_ref   1.102
_refine_ls_restrained_S_all      1.102
_refine_ls_shift/su_max          0.000
_refine_ls_shift/su_mean         0.000

loop_
_atom_site_label
_atom_site_type_symbol
_atom_site_fract_x
_atom_site_fract_y
_atom_site_fract_z
_atom_site_U_iso_or_equiv
_atom_site_adp_type
_atom_site_occupancy
_atom_site_site_symmetry_order
_atom_site_calc_flag
_atom_site_refinement_flags_posn
_atom_site_refinement_flags_adp
_atom_site_refinement_flags_occupancy
_atom_site_disorder_assembly
_atom_site_disorder_group
Fe1 Fe 0.5000 0.0000 0.5000 0.02852(19) Uani 1 2 d S . P . .
O1 O 0.46464(18) 0.15617(13) 0.36613(19) 0.0445(4) Uani 1 1 d . . . . .
O2 O 0.40243(18) 0.06791(12) 0.72685(17) 0.0430(4) Uani 1 1 d . . . . .
O3 O 0.21747(17) 0.06654(13) 0.91839(17) 0.0427(4) Uani 1 1 d . . . . .
C1 C 0.4724(4) 0.2500 0.4378(4) 0.0383(7) Uani 1 2 d S T P . .
H1 H 0.4851 0.2500 0.5551 0.046 Uiso 1 2 calc R U P . .
C2 C 0.2804(3) 0.0324(2) 0.7858(3) 0.0469(6) Uani 1 1 d . . . . .
H2 H 0.2311 -0.0251 0.7258 0.056 Uiso 1 1 calc R U . . .
N1 N 0.4310(6) 0.2500 1.0119(4) 0.0596(10) Uani 1 2 d DS T P . .
N2 N 0.5801(7) 0.2835(7) 0.9823(7) 0.089(3) Uani 0.5 1 d D . P . .
H1B H 0.382(4) 0.190(2) 0.970(4) 0.107 Uiso 1 1 d D U . . .
H1A H 0.407(6) 0.2500 1.120(3) 0.107 Uiso 1 2 d DS U P . .
H2B H 0.574(9) 0.306(5) 0.876(4) 0.107 Uiso 0.5 1 d D U P . .
H2A H 0.635(5) 0.2500 1.056(5) 0.107 Uiso 1 2 d DS U P . .

loop_
_atom_site_aniso_label
_atom_site_aniso_U_11
_atom_site_aniso_U_22
_atom_site_aniso_U_33
_atom_site_aniso_U_23
_atom_site_aniso_U_13
_atom_site_aniso_U_12
Fe1 0.0327(3) 0.0292(3) 0.0237(3) -0.00050(15) 0.00004(15) -0.00173(17)
O1 0.0647(10) 0.0312(8) 0.0377(8) -0.0017(7) -0.0082(7) -0.0005(7)
O2 0.0434(9) 0.0483(9) 0.0374(8) -0.0062(7) 0.0122(7) -0.0080(8)
O3 0.0416(8) 0.0544(9) 0.0322(8) -0.0055(7) 0.0068(7) -0.0064(7)
C1 0.0451(19) 0.038(2) 0.0316(16) 0.000 -0.0046(14) 0.000
C2 0.0525(15) 0.0517(13) 0.0366(11) -0.0115(11) 0.0089(11) -0.0138(13)
N1 0.072(3) 0.061(2) 0.0463(18) 0.000 -0.0228(16) 0.000
N2 0.063(3) 0.122(9) 0.083(3) 0.036(4) -0.008(2) -0.003(4)

_geom_special_details            
;
 All esds (except the esd in the dihedral angle between two l.s. planes)
 are estimated using the full covariance matrix.  The cell esds are taken
 into account individually in the estimation of esds in distances, angles
 and torsion angles; correlations between esds in cell parameters are only
 used when they are defined by crystal symmetry.  An approximate (isotropic)
 treatment of cell esds is used for estimating esds involving l.s. planes.
;

loop_
_geom_bond_atom_site_label_1
_geom_bond_atom_site_label_2
_geom_bond_distance
_geom_bond_site_symmetry_2
_geom_bond_publ_flag
Fe1 O2 2.1337(15) . ?
Fe1 O2 2.1337(15) 5_656 ?
Fe1 O1 2.1402(16) . ?
Fe1 O1 2.1402(16) 5_656 ?
Fe1 O3 2.1528(15) 6_657 ?
Fe1 O3 2.1528(15) 2_554 ?
O1 C1 1.241(2) . ?
O2 C2 1.235(3) . ?
O3 C2 1.246(3) . ?
O3 Fe1 2.1528(15) 2 ?
C1 O1 1.241(2) 8_565 ?
C1 H1 0.9300 . ?
C2 H2 0.9300 . ?
N1 N2 1.380(9) . ?
N1 N2 1.380(9) 8_565 ?
N1 H1B 0.886(19) . ?
N1 H1A 0.878(19) . ?
N2 N2 0.788(16) 8_565 ?
N2 H2B 0.88(2) . ?
N2 H2A 0.852(19) . ?

loop_
_geom_angle_atom_site_label_1
_geom_angle_atom_site_label_2
_geom_angle_atom_site_label_3
_geom_angle
_geom_angle_site_symmetry_1
_geom_angle_site_symmetry_3
_geom_angle_publ_flag
O2 Fe1 O2 180.0 . 5_656 ?
O2 Fe1 O1 91.89(6) . . ?
O2 Fe1 O1 88.11(6) 5_656 . ?
O2 Fe1 O1 88.11(6) . 5_656 ?
O2 Fe1 O1 91.89(6) 5_656 5_656 ?
O1 Fe1 O1 180.0 . 5_656 ?
O2 Fe1 O3 88.09(6) . 6_657 ?
O2 Fe1 O3 91.91(6) 5_656 6_657 ?
O1 Fe1 O3 87.83(6) . 6_657 ?
O1 Fe1 O3 92.17(6) 5_656 6_657 ?
O2 Fe1 O3 91.91(6) . 2_554 ?
O2 Fe1 O3 88.09(6) 5_656 2_554 ?
O1 Fe1 O3 92.17(6) . 2_554 ?
O1 Fe1 O3 87.83(6) 5_656 2_554 ?
O3 Fe1 O3 180.0 6_657 2_554 ?
C1 O1 Fe1 122.13(17) . . ?
C2 O2 Fe1 122.17(14) . . ?
C2 O3 Fe1 121.47(15) . 2 ?
O1 C1 O1 125.6(3) 8_565 . ?
O1 C1 H1 117.2 8_565 . ?
O1 C1 H1 117.2 . . ?
O2 C2 O3 125.9(2) . . ?
O2 C2 H2 117.1 . . ?
O3 C2 H2 117.1 . . ?
N2 N1 N2 33.2(7) . 8_565 ?
N2 N1 H1B 128(3) . . ?
N2 N1 H1B 100(3) 8_565 . ?
N2 N1 H1A 113(4) . . ?
N2 N1 H1A 113(4) 8_565 . ?
H1B N1 H1A 104(3) . . ?
N2 N2 N1 73.4(3) 8_565 . ?
N2 N2 H2B 108(4) 8_565 . ?
N1 N2 H2B 101(5) . . ?
N2 N2 H2A 62.4(9) 8_565 . ?
N1 N2 H2A 107(4) . . ?
H2B N2 H2A 145(6) . . ?

loop_
_geom_torsion_atom_site_label_1
_geom_torsion_atom_site_label_2
_geom_torsion_atom_site_label_3
_geom_torsion_atom_site_label_4
_geom_torsion
_geom_torsion_site_symmetry_1
_geom_torsion_site_symmetry_2
_geom_torsion_site_symmetry_3
_geom_torsion_site_symmetry_4
_geom_torsion_publ_flag
Fe1 O1 C1 O1 174.3(2) . . . 8_565 ?
Fe1 O2 C2 O3 178.98(18) . . . . ?
Fe1 O3 C2 O2 177.76(19) 2 . . . ?

loop_
_geom_hbond_atom_site_label_D
_geom_hbond_atom_site_label_H
_geom_hbond_atom_site_label_A
_geom_hbond_distance_DH
_geom_hbond_distance_HA
_geom_hbond_distance_DA
_geom_hbond_angle_DHA
_geom_hbond_site_symmetry_A
N1 H1A O1 0.878(19) 2.29(3) 3.013(3) 140(3) 1_556
N1 H1A O1 0.878(19) 2.29(3) 3.013(3) 140(3) 8_566
N1 H1B O3 0.886(19) 2.09(2) 2.946(3) 163(4) .
N1 H1B O2 0.886(19) 2.40(3) 3.112(3) 137(3) .
N2 H2B O2 0.88(2) 2.42(6) 3.083(6) 133(6) 8_565

_refine_diff_density_max         0.176
_refine_diff_density_min         -0.304
_refine_diff_density_rms         0.066

_shelx_res_file                  
;

    hydrfe_360k.res created by SHELXL-2014/7

TITL hydrFe_360K in Pnma #62
REM reset to Pnma #62
CELL 0.71073 8.736 11.763 7.871 90 90 90
ZERR 4 0.003 0.004 0.003 0 0 0
LATT 1
SYMM 0.5-X,-Y,0.5+Z
SYMM 0.5+X,0.5-Y,0.5-Z
SYMM -X,0.5+Y,-Z
SFAC C H Fe N O
UNIT 12 32 4 8 24
EQIV $1 +X,+Y,1+Z
EQIV $2 +X,0.5-Y,1+Z
EQIV $3 +X,0.5-Y,+Z
DFIX 0.89 N2 H2b
DFIX 0.89 N2 H2a
DFIX 0.89 N1 H1a
DFIX 0.89 N1 H1b

L.S. 6
PLAN  20
TEMP 86.85(15)
HTAB N1 O1_$1
HTAB N1 O1_$2
HTAB N1 O3
HTAB N1 O2
HTAB N2 O2_$3
FREE N2 H2b_$3
MORE -1
BOND $H
CONF
fmap 2 53
acta
OMIT 0 52
REM <olex2.extras>
REM <HklSrc "%.\\hydrFe_360K.hkl">
REM </olex2.extras>

WGHT    0.042600    0.137800
FVAR       3.59311
FE1   3    0.500000    0.000000    0.500000    10.50000    0.03269    0.02920 =
         0.02369   -0.00050    0.00004   -0.00173
O1    5    0.464635    0.156169    0.366130    11.00000    0.06465    0.03120 =
         0.03772   -0.00165   -0.00823   -0.00054
O2    5    0.402428    0.067908    0.726849    11.00000    0.04341    0.04828 =
         0.03742   -0.00617    0.01224   -0.00802
O3    5    0.217469    0.066544    0.918387    11.00000    0.04157    0.05438 =
         0.03221   -0.00548    0.00685   -0.00642
C1    1    0.472379    0.250000    0.437757    10.50000    0.04514    0.03822 =
         0.03159    0.00000   -0.00462    0.00000
AFIX  43
H1    2    0.485064    0.250001    0.555071    10.50000   -1.20000
AFIX   0
C2    1    0.280435    0.032379    0.785809    11.00000    0.05248    0.05167 =
         0.03664   -0.01145    0.00894   -0.01382
AFIX  43
H2    2    0.231118   -0.025059    0.725840    11.00000   -1.20000
AFIX   0

N1    4    0.430999    0.250000    1.011927    10.50000    0.07151    0.06098 =
         0.04633    0.00000   -0.02278    0.00000
N2    4    0.580060    0.283490    0.982313    10.50000    0.06345    0.12243 =
         0.08262    0.03574   -0.00800   -0.00275
H1B   2    0.382000    0.190268    0.970126    11.00000   -1.20000
H1A   2    0.406629    0.250000    1.120103    10.50000   -1.20000
H2B   2    0.574294    0.305957    0.876045    10.50000   -1.20000
H2A   2    0.635183    0.250000    1.056173    10.50000   -1.20000
HKLF 4

REM  hydrFe_360K in Pnma #62
REM R1 =  0.0282 for     655 Fo > 4sig(Fo)  and  0.0384 for all     842 data
REM     74 parameters refined using      4 restraints

END

WGHT      0.0426      0.1378

REM Highest difference peak  0.176,  deepest hole -0.304,  1-sigma level  0.066
Q1    1   0.5761  0.1609  1.1225  11.00000  0.05    0.18
Q2    1   0.3561  0.2500  0.6896  10.50000  0.05    0.18
Q3    1   0.2992  0.2500  1.0289  10.50000  0.05    0.17
Q4    1   0.4178  0.1538  0.4189  11.00000  0.05    0.17
Q5    1   0.4844  0.1025  0.4067  11.00000  0.05    0.15
Q6    1   0.5385  0.3625  0.9067  11.00000  0.05    0.15
Q7    1   0.1953  0.0767  0.8625  11.00000  0.05    0.15
Q8    1   0.1851  0.1059  0.9580  11.00000  0.05    0.15
Q9    1   0.5187  0.1774  1.1542  11.00000  0.05    0.14
Q10   1   0.2884 -0.0786  0.7831  11.00000  0.05    0.14
Q11   1   0.3653  0.1375  0.7180  11.00000  0.05    0.14
Q12   1   0.4398  0.3159  1.0942  11.00000  0.05    0.14
Q13   1   0.4727  0.1355  0.3098  11.00000  0.05    0.14
Q14   1   0.4356  0.2500  0.5422  10.50000  0.05    0.13
Q15   1   0.2640  0.0532  0.9249  11.00000  0.05    0.13
Q16   1   0.2815 -0.1610  0.7130  11.00000  0.05    0.13
Q17   1   0.5701  0.1689  0.3848  11.00000  0.05    0.13
Q18   1   0.2627  0.1335  0.8894  11.00000  0.05    0.13
Q19   1   0.3973  0.1715  0.2955  11.00000  0.05    0.13
Q20   1   0.6603  0.3419  0.9417  11.00000  0.05    0.13
;
_shelx_res_checksum              97225

_shelx_hkl_file                  
;
   0  -2   0 118499. 645.513   2
   0  -3   0-0.75233 31.7639   2
   0  -4   0 118961. 908.786   2
   0  -5   0 14.5756 34.6926   2
   0  -6   0 10667.9 335.219   2
   0  -7   0 35.3935 46.0216   2
   0  -8   0 7479.92 324.149   2
   0  -9   0-1.48383 47.9239   2
   0 -10   0 36.2515 46.3334   2
   0 -11   0-4.48449 55.0643   2
   0 -12   0 19725.6 659.226   2
   0 -13   0-23.8220 56.8807   2
   0  14   0 5506.00 482.259   3
   0  15   0-150.162 126.503   3
  -1   0   0 27.1423 18.9368   1
   1   0   0 0.58502 19.4937   1
   1   1   0 9.35012 26.3913   1
   1  -1   0 21.6320 20.1521   1
  -1  -1   0-4.92905 18.4551   1
  -1   1   0 2.17846 15.7714   1
  -1  -2   0 51.2555 32.5587   1
   1  -2   0 37.3570 25.3696   1
  -1   2   0 49.2564 33.8530   3
   1  -2   0 38.8670 39.1305   3
   1  -3   0 88.4584 25.8410   2
  -1   3   0 150.031 56.4615   3
   1  -4   0 36.6480 25.3372   2
  -1   4   0-13.4957 48.6768   3
  -1  -4   0-40.0080 50.8742   2
  -1  -5   0 6.77939 49.9579   2
   1  -5   0 35.6432 29.1583   2
  -1   5   0 26.3091 62.2490   3
  -1  -6   0 4.07758 46.8641   2
   1  -6   0 15.9824 35.5844   2
   1  -7   0 7.91650 33.7238   2
  -1  -7   0-16.1721 55.4813   2
   1  -8   0-19.1445 45.7612   2
  -1  -8   0-15.7894 53.5711   2
  -1   8   0-31.2796 79.9636   3
   1  -9   0 72.3351 48.7474   2
  -1  -9   0 20.7222 53.4560   2
  -1   9   0 19.7152 72.2593   3
  -1 -10   0 38.5127 62.5341   2
  -1  10   0 19.5804 67.3141   3
   1 -10   0-42.5581 50.3998   2
  -1 -11   0 32.7645 49.1006   2
   1 -11   0-35.4953 54.3859   2
  -1  11   0-85.9362 99.8613   3
   1 -12   0-11.7570 54.7386   2
  -1 -12   0 21.2371 61.8791   2
  -1  12   0-44.9534 103.880   3
  -1  13   0-192.280 108.348   3
  -1 -13   0 68.6048 70.5349   2
   1 -13   0-196.476 78.6970   2
  -1 -14   0 92.2601 87.7521   2
  -1  14   0-363.944 153.051   3
   2   0   0 166127. 979.469   1
  -2   0   0 165784. 980.725   1
  -2  -1   0 21672.2 391.538   1
  -2   1   0 21959.2 346.173   1
   2  -1   0 22645.2 347.773   1
   2   1   0 21947.8 387.300   1
   2   2   0 9232.73 278.235   1
   2  -2   0 8589.75 223.794   1
  -2   2   0 8731.88 224.044   1
  -2  -2   0 8359.59 264.115   1
   2  -3   0 7535.27 224.423   1
  -2  -3   0 7419.68 272.315   1
   2  -3   0 7456.13 287.455   3
  -2   3   0 7446.01 221.324   1
  -2   4   0 46608.8 767.887   3
   2  -4   0 46004.6 600.536   1
   2  -4   0 45679.5 772.052   3
  -2  -4   0 46644.9 727.428   1
   2  -5   0 3161.61 106.877   2
   2  -5   0 2925.99 167.239   1
  -2   5   0 2983.03 214.261   3
  -2  -5   0 3178.87 207.944   1
  -2  -5   0 3091.86 211.203   2
  -2   6   0 67606.2 1087.11   3
  -2  -6   0 68530.8 1020.94   1
   2  -6   0 64433.4 577.139   2
  -2  -6   0 68967.6 1031.53   2
   2  -6   0 70955.0 890.451   1
  -2  -7   0 282.275 88.1597   2
  -2  -7   0 290.647 78.8419   1
   2  -7   0 307.542 51.7247   2
  -2   7   0 412.466 102.148   3
  -2  -8   0 54816.5 1022.32   1
   2  -8   0 52423.6 655.680   2
  -2   8   0 52426.4 1102.36   3
  -2  -8   0 52387.4 1021.73   2
  -2  -9   0 882.407 149.138   2
   2  -9   0 698.872 90.3058   2
  -2   9   0 811.005 159.126   3
  -2 -10   0 6642.13 410.467   2
   2 -10   0 6601.71 275.432   2
  -2  10   0 7269.62 469.657   3
  -2 -11   0 1481.20 205.569   2
   2 -11   0 1395.62 135.175   2
  -2  11   0 1547.77 234.029   3
  -2 -12   0 16810.5 706.684   2
   2 -12   0 16807.7 495.051   2
  -2  12   0 16699.2 783.929   3
   2 -12   0 15901.2 606.976   1
   2 -13   0 205.024 100.883   1
  -2  13   0 61.4054 91.0956   3
  -2 -13   0 168.616 90.2043   2
  -2  14   0 4545.04 455.181   3
  -2 -14   0 3709.66 365.834   2
   2 -14   0 3755.16 318.431   1
  -2 -15   0 127.183 98.5480   2
  -3   0   0-17.5940 35.5593   1
   3   0   0-27.8550 45.1626   1
   3   1   0-10.2092 35.9591   1
  -3   1   0-15.5552 35.3296   1
  -3  -1   0 19.6088 32.3782   1
   3  -1   0-8.64709 40.1303   1
  -3  -2   0-20.4866 44.8111   1
  -3   2   0 121.561 46.1229   1
   3   2   0 52.1783 53.2569   1
  -3   2   0 29.9817 20.8075   2
   3  -2   0-3.96880 39.9265   1
   3  -3   0 43.9705 38.6798   1
   3   3   0 31.6232 55.3166   1
   3  -3   0-31.9144 45.1923   3
  -3  -3   0 35.5922 52.6246   1
  -3   3   0 17.5543 35.7657   1
  -3  -4   0-2.11052 45.4969   1
   3  -4   0-4.89191 40.5280   3
   3  -4   0 20.8599 35.7560   1
  -3   4   0 5.28993 32.5658   1
  -3  -5   0 47.8972 62.9324   2
   3  -5   0 49.6824 44.5389   1
   3  -5   0 69.2411 52.8365   3
  -3  -5   0-21.6949 47.3027   1
  -3  -6   0 60.6409 58.0715   1
  -3   6   0 55.3733 68.9364   3
  -3  -6   0-57.6908 76.8794   2
   3  -6   0-8.31601 36.9824   1
  -3  -7   0 53.7923 63.9134   2
   3  -7   0 115.090 56.1206   1
  -3  -7   0-45.0838 49.7371   1
   3  -7   0-7.98476 10.7266   2
  -3   7   0 13.6324 60.1269   3
  -3  -8   0-56.7853 76.2200   2
   3  -8   0 1.44805 51.5830   1
  -3   8   0 68.3105 87.4813   3
   3  -8   0 10.4195 13.2700   2
  -3   9   0-53.3583 78.3832   3
   3  -9   0-3.56091 17.5272   2
   3  -9   0 14.2616 45.9057   1
  -3  -9   0 110.432 97.7099   2
  -3 -10   0-22.4041 80.8936   2
  -3  10   0 4.10268 61.9518   3
   3 -10   0-41.4045 52.1740   1
   3 -10   0-2.72751 17.3400   2
   3 -10   0-6.47367 20.2293   2
  -3  11   0-70.4643 88.7047   3
  -3 -11   0-42.3689 69.6395   2
   3 -11   0-1.58424 53.1940   1
  -3  12   0-32.4694 93.0513   3
   3 -12   0 50.0507 52.9183   1
  -3 -12   0-60.2112 72.3797   2
   3 -13   0 26.5526 59.5666   1
  -3  13   0-34.9161 101.318   3
  -3 -13   0-12.7765 92.3738   2
  -3 -14   0 24.9082 104.117   2
  -3  14   0 140.429 123.027   3
  -3 -15   0 250.709 126.699   2
   4   0   0 127796. 1227.30   1
  -4   0   0 128634. 1237.45   1
  -4   1   0 27997.5 558.855   1
   4   1   0 27385.5 595.021   1
   4  -1   0 27262.5 557.906   1
  -4  -1   0 27552.7 604.581   1
  -4   2   0 64696.8 643.090   2
  -4  -2   0 66338.9 974.064   1
   4   2   0 66317.7 960.765   1
   4  -2   0 64563.2 847.932   1
  -4   2   0 65780.8 861.559   1
  -4  -3   0 10728.9 412.185   1
  -4   3   0 9895.31 204.301   2
   4  -3   0 9571.84 331.182   1
   4   3   0 10407.6 399.366   1
  -4   3   0 10206.0 338.462   1
  -4   4   0 43417.7 712.121   1
  -4  -4   0 43685.2 865.392   1
   4  -4   0 43305.8 710.415   1
   4   4   0 43270.8 849.479   1
   4  -4   0 44213.9 889.875   3
  -4   5   0 2574.82 183.634   1
  -4  -5   0 2541.60 233.399   2
   4  -5   0 2288.78 224.714   3
   4  -5   0 2434.76 177.959   1
  -4  -5   0 2389.68 218.974   1
  -4  -6   0 45285.6 989.411   2
   4  -6   0 46474.1 797.728   1
   4  -7   0 10.6812 43.9689   1
  -4  -7   0 134.475 80.3582   2
   4  -8   0 20867.2 589.386   1
  -4  -8   0 20849.8 743.924   2
   4  -9   0-3.75449 50.5181   1
  -4  -9   0 41.3381 84.7402   2
  -4 -10   0 3870.02 350.219   2
   4 -10   0 3842.59 279.367   1
   4 -11   0 6036.50 363.159   1
  -4 -11   0 6015.41 472.664   2
   4 -12   0 6184.27 383.042   1
  -4 -12   0 6259.86 488.918   2
  -4 -13   0 318.614 137.471   2
  -4 -14   0 1886.37 289.377   2
  -5   0   0 28.0422 45.5186   1
   5   0   0 3.93474 47.9591   1
   5  -1   0 26.9743 55.8245   1
  -5  -1   0-12.9334 49.8756   1
  -5   1   0-2.18139 44.0760   1
   5   1   0-12.1105 49.8772   1
  -5  -2   0-14.2468 47.9515   1
   5  -2   0-1.32106 42.1854   1
   5   2   0-22.8452 50.2404   1
  -5   2   0-40.6504 43.0045   1
  -5   2   0-18.5081 31.7815   2
  -5   3   0-3.11425 24.8781   2
   5   3   0 8.53906 57.7441   1
  -5   3   0-6.35150 22.4537   2
  -5   3   0 12.6656 36.5173   1
   5  -3   0 35.2260 49.3469   1
  -5  -3   0-15.0345 63.8860   1
   5  -4   0-51.2986 55.1366   1
   5   4   0 20.2293 63.1800   1
  -5   4   0 12.7200 16.6533   2
  -5   4   0 47.8929 55.8222   1
  -5   4   0-3.24595 14.4087   2
   5  -4   0-2.04427 46.8287   3
  -5  -4   0-87.3205 81.3673   2
  -5  -5   0 59.4107 60.6328   2
   5  -5   0-56.7426 57.8072   1
  -5   5   0-21.5883 47.7286   1
   5  -6   0 97.6792 59.3116   1
  -5  -6   0-39.4288 79.2103   2
   5  -7   0 25.2849 54.3941   1
  -5  -7   0 96.7804 87.3548   2
  -5  -8   0-25.8635 82.9635   2
   5  -8   0 41.3748 54.6935   1
  -5  -9   0-46.6450 81.4965   2
   5  -9   0-17.7956 65.6074   1
  -5 -10   0-14.4313 94.4359   2
   5 -10   0-32.1120 69.1287   1
  -5 -11   0-26.4626 98.5768   2
   5 -11   0-270.510 92.5571   1
  -5 -12   0 58.6153 100.857   2
  -5 -13   0-24.7858 85.1468   2
   6   0   0 2031.30 197.395   1
  -6   0   0 2000.95 195.397   1
  -6   1   0 1426.81 167.767   1
   6   1   0 1346.83 170.795   1
  -6  -1   0 1353.94 170.754   1
  -6   1   0 1293.41 141.871   2
   6  -1   0 1269.58 159.808   1
   6   2   0 13109.3 516.651   1
  -6   2   0 13478.2 388.874   2
   6  -2   0 12565.4 468.139   1
  -6   2   0 13842.8 495.742   1
  -6  -2   0 12504.5 493.257   2
  -6   2   0 12915.5 380.099   2
  -6   3   0 6656.31 243.991   2
  -6  -3   0 6327.50 373.579   2
  -6   3   0 6196.61 334.522   1
   6   3   0 6479.57 379.320   1
  -6   3   0 6917.01 251.635   2
   6  -3   0 6306.09 331.589   1
  -6   4   0 14596.2 510.121   1
  -6  -4   0 14106.9 579.740   2
  -6   4   0 14855.9 313.285   2
   6   4   0 13497.7 559.924   1
  -6   4   0 13697.1 294.614   2
   6  -4   0 13282.7 485.402   1
  -6  -5   0 3057.11 292.888   2
   6  -5   0 2557.81 223.495   1
  -6   5   0 2732.28 227.746   1
   6  -6   0 30513.7 751.557   1
  -6   6   0 30842.2 757.708   1
  -6  -6   0 29141.6 905.231   2
  -6  -7   0 539.859 159.257   2
   6  -7   0 411.689 103.226   1
   6  -8   0 20564.8 646.912   1
  -6  -8   0 21003.2 856.915   2
  -6  -9   0 5256.98 456.556   2
   6  -9   0 5518.21 348.775   1
  -6 -10   0 8947.00 599.207   2
   6 -10   0 9522.87 469.417   1
  -6 -11   0 405.573 152.425   2
  -6 -12   0 4071.44 436.356   2
   7   0   0 19.4226 66.0243   1
  -7   0   0 4.07251 52.6162   2
   7   1   0 44.3088 70.6656   1
  -7   1   0-20.6382 51.9592   2
   7  -1   0 69.1144 72.3701   1
  -7  -1   0 14.3851 68.5411   2
  -7   2   0-34.9222 56.2844   2
   7  -2   0 34.2430 77.5936   1
  -7   2   0 24.7558 48.3213   2
  -7  -2   0 49.7739 67.2018   2
   7   2   0 43.3681 70.4011   1
  -7   3   0-13.1643 43.0423   2
  -7  -3   0-14.2027 64.7117   2
  -7   3   0-17.4470 37.6336   2
   7   3   0 95.3241 84.2928   1
   7  -3   0-13.9528 63.0061   1
  -7   4   0-82.6199 35.5914   2
  -7   4   0-4.57368 28.2134   2
  -7  -4   0-1.00079 72.9745   2
   7  -4   0 121.934 85.9307   1
   7   4   0 31.9567 75.7132   1
  -7   5   0 1.65808 11.0336   2
   7  -5   0 67.6476 68.9227   1
  -7  -5   0-26.0988 76.5925   2
  -7  -6   0 68.2026 79.1082   2
   7  -6   0-43.4484 67.2387   1
   7  -7   0-76.2667 73.3263   1
  -7  -7   0 22.5965 76.7511   2
  -7  -8   0 106.758 115.656   2
   7  -8   0 2.15926 59.8946   1
  -7  -9   0 3.02851 107.529   2
   7  -9   0-23.9096 56.8191   1
  -7 -10   0 143.900 118.921   2
  -7 -11   0-424.187 159.084   2
  -8   0   0 8536.60 430.550   2
   8   0   0 8823.51 485.069   1
   8  -1   0 1213.39 189.512   1
  -8   1   0 1246.40 161.044   2
  -8   1   0 1022.55 143.189   2
   8   1   0 956.297 174.669   1
  -8  -1   0 1212.35 189.746   2
  -8  -2   0 14337.7 614.645   2
  -8   2   0 14040.7 480.121   2
   8  -2   0 14302.9 599.297   1
   8   2   0 15203.9 658.397   1
  -8   2   0 14010.1 495.119   2
   8   3   0 333.310 131.941   1
   8  -3   0 304.139 111.344   1
  -8   3   0 341.184 75.9422   2
  -8  -3   0 320.766 126.431   2
  -8   3   0 302.159 79.5147   2
  -8   4   0 8242.58 310.199   2
   8  -4   0 7560.56 432.305   1
  -8  -4   0 7751.34 492.007   2
   8   4   0 7338.09 475.919   1
  -8  -5   0 673.107 168.735   2
   8  -5   0 423.619 128.508   1
  -8  -6   0 5888.90 461.575   2
   8  -6   0 5569.53 373.122   1
  -8  -7   0 82.9411 113.287   2
   8  -7   0 163.991 88.7202   1
   8  -8   0 3480.75 307.903   1
  -8  -8   0 3439.02 400.110   2
  -8  -9   0 200.638 150.334   2
  -8 -10   0 3637.32 433.830   2
  -9   0   0-43.2259 64.6508   2
   9   0   0 58.5882 77.6840   1
   9   1   0 7.05554 76.0418   1
  -9  -1   0 81.3127 93.9010   2
  -9   1   0 2.50979 56.0439   2
   9  -1   0-45.7826 72.3705   1
   9  -2   0-113.642 78.6514   1
  -9   2   0-7.11265 45.7352   2
   9   2   0 20.6867 99.6286   1
  -9  -2   0-72.9412 99.6456   2
   9  -3   0-198.092 98.8609   1
  -9  -3   0 6.64096 78.7082   2
   9   3   0-62.3639 108.859   1
  -9   3   0-13.1526 37.0109   2
   9   4   0-6.55579 83.8401   1
  -9  -4   0 127.961 115.070   2
   9  -4   0 3.17956 69.6550   1
  -9  -5   0 113.905 113.467   2
   9  -5   0-38.6846 79.6612   1
  -9  -6   0 72.4338 92.7113   2
   9  -6   0-22.3535 60.4826   1
   9  -7   0-74.2098 75.1450   1
  -9  -7   0-189.214 109.918   2
  -9  -8   0-8.70527 85.5518   2
 -10   0   0 7336.43 454.863   2
  10   0   0 7352.19 510.959   1
  10   1   0 248.782 124.078   1
  10  -1   0 182.052 124.543   1
 -10  -1   0 97.8228 110.371   2
 -10   1   0 191.783 104.926   2
 -10  -2   0 7910.52 516.715   2
  10  -2   0 8253.90 529.241   1
  10   2   0 8109.38 554.833   1
  10  -3   0 224.587 138.816   1
 -10  -3   0 396.209 179.231   2
  10   3   0 310.433 142.672   1
  10  -4   0 3765.00 355.575   1
  10   4   0 3649.03 393.135   1
 -10  -5   0 195.406 128.657   2
  10  -5   0 126.931 90.0106   1
  10  -6   0 905.415 184.133   1
 -10  -6   0 1212.74 242.476   2
  11   0   0 95.8023 90.8445   1
 -11  -1   0-26.8272 80.5752   2
  11  -1   0-150.504 112.342   1
  11   1   0 78.1626 92.5824   1
  11   2   0-19.7154 107.748   1
 -11  -2   0-291.849 164.341   2
  11  -2   0-147.393 102.064   1
 -11  -3   0 217.337 136.769   2
  11  -3   0 33.0246 90.0289   1
  11   3   0 51.1024 93.3171   1
  11  -4   0-47.7687 90.8256   1
 -11  -4   0 214.199 145.447   2
   0   0  -1 21.7016 20.0037   2
   0   0   1 88.2409 23.7443   1
   0   0   1 61.8759 25.0462   2
   0  -1   1 6.02018 21.5759   2
   0   1  -1 23.6545 25.8962   2
   0   1   1 18.7552 25.4455   2
   0  -1  -1-4.94428 21.1352   2
   0   2   1 72.4730 33.9805   2
   0  -2  -1 167.193 40.5302   2
   0  -2  -1 139.790 28.0165   1
   0   2   1 79.0698 25.8695   1
   0   2  -1 103.520 36.1630   2
   0  -2   1 100.163 41.1902   2
   0  -3  -1 89937.2 719.024   2
   0  -3  -1 89887.2 623.099   1
   0   3  -1 90813.2 785.042   2
   0  -3   1 89908.6 782.837   2
   0   4  -1 38.8809 40.7092   2
   0  -4  -1 69.9764 35.8976   1
   0  -4   1 90.9169 47.4874   2
   0  -5   1 92587.3 961.703   2
   0   5  -1 91501.1 955.571   2
   0   6  -1-24.3865 32.6460   2
   0  -6   1 80.7243 46.1599   2
   0  -7   1 1193.78 133.362   2
   0  -8   1 3.66895 50.3652   2
   0  -8  -1 9.42675 47.6852   2
   0  -9  -1 2362.82 195.763   2
   0  -9  -1 2448.41 201.182   1
   0  -9   1 2358.31 203.946   2
   0 -10  -1 10.1390 51.8281   2
   0 -10   1 27.4093 62.4380   2
   0 -10  -1-94.4126 57.4526   1
   0 -11   1 0.38982 49.0049   2
   0 -11  -1 11.3973 52.1475   2
   0 -12  -1-88.9239 77.6999   2
   0 -12   1-12.9019 65.6062   2
   0 -13  -1 521.933 120.079   2
   0 -13   1 436.923 113.707   2
   0  13   1 284.722 133.773   3
   0  14   1 58.6950 101.319   3
   0 -14   1 0.51769 69.6564   2
   0  14  -1-171.308 122.323   3
   0  15   1 329.759 138.451   3
   1   0   1 163839. 876.407   1
   1   0   1 167725. 869.886   2
  -1   0   1 161066. 821.143   2
  -1   0  -1 165282. 875.380   1
  -1   0  -1 164584. 874.348   2
  -1   1   1 1311.82 66.7200   2
   1  -1   1 1495.83 95.2289   1
   1  -1   1 1241.03 87.3319   3
  -1  -1  -1 1267.88 84.8727   1
  -1   1  -1 1397.10 91.8130   1
  -1   1  -1 1306.37 75.7767   2
  -1  -1  -1 1449.12 92.8289   2
   1   1   1 1254.17 81.5654   1
   1  -1  -1 821.190 54.0995   2
  -1  -1   1 1398.42 94.4841   2
   1   1  -1 1280.57 91.0691   2
   1   1   1 1362.02 92.9808   2
   1  -1   1 1256.74 75.5958   2
  -1   2   1 140991. 884.910   3
  -1   2  -1 146598. 1016.81   3
  -1  -2   1 145850. 1020.83   2
  -1  -2  -1 143653. 901.451   1
  -1   2  -1 143553. 806.284   2
   1  -2   1 146393. 979.530   1
   1  -2  -1 145126. 645.471   2
   1  -2  -1 143728. 888.384   3
   1   2   1 144141. 885.585   1
  -1   2   1 145008. 643.131   2
  -1  -2  -1 144039. 984.651   2
   1  -2   1 147294. 1020.62   3
   1  -2   1 147456. 802.943   2
   1   2  -1 143233. 1008.68   2
  -1  -3  -1 18811.8 363.656   1
   1  -3  -1 19200.6 262.344   2
   1   3   1 19635.1 366.739   1
  -1  -3   1 18852.1 408.619   2
  -1   3  -1 18856.1 320.338   2
   1   3  -1 18102.2 402.384   2
  -1   3  -1 18642.2 419.025   3
  -1   3   1 19004.0 379.644   3
   1  -3   1 19602.4 323.185   2
  -1   4  -1 22963.6 394.637   2
  -1   4   1 23357.0 481.156   3
  -1  -4   1 24342.8 500.818   2
   1  -4   1 25663.6 411.172   2
   1  -4  -1 23407.2 341.186   2
  -1  -4  -1 23258.6 446.261   1
   1   4  -1 23866.9 496.814   2
  -1   4  -1 24263.7 539.651   3
   1  -5  -1 14366.9 302.170   2
  -1  -5   1 12974.2 401.713   2
   1  -5   1 14601.0 345.681   2
  -1  -5  -1 13926.2 374.730   1
  -1   5  -1 14570.6 346.347   2
  -1   5   1 13720.0 416.962   3
  -1   5  -1 14533.6 463.091   3
   1   5  -1 13970.8 414.643   2
   1  -6   1 65313.1 794.300   2
  -1  -6  -1 66392.2 893.101   1
  -1   6   1 67052.4 1013.38   3
  -1  -6   1 68021.8 969.304   2
  -1   6  -1 64711.6 791.494   2
   1  -7  -1 144.572 49.2057   2
  -1   7   1 328.174 89.0910   3
  -1  -7   1 112.568 54.2392   2
   1  -7   1 199.047 56.9785   2
  -1  -7  -1 119.310 59.0222   1
  -1  -8   1 22886.6 641.074   2
  -1   8   1 23423.8 701.272   3
  -1  -8  -1 24788.2 621.349   1
   1  -8   1 24689.7 561.635   2
   1  -8  -1 24139.1 513.534   2
  -1  -9   1 146.120 70.3722   2
  -1   9  -1 108.095 92.5876   3
   1  -9  -1 104.472 50.5262   2
  -1   9   1 38.6888 68.0642   3
  -1  -9  -1 217.620 86.5256   1
   1  -9   1 95.1577 52.3616   2
  -1  -9  -1 52.8111 57.8995   2
  -1 -10  -1 7074.37 392.011   2
   1 -10   1 6654.89 329.387   2
  -1  10   1 6784.16 431.552   3
  -1 -10   1 6800.64 387.633   2
   1 -10  -1 7188.53 324.476   2
  -1  10  -1 6126.25 429.877   3
  -1  11  -1 403.455 137.737   3
   1 -11  -1 236.264 73.1942   2
   1 -11   1 175.807 71.9971   2
  -1 -11   1 72.8857 68.0005   2
  -1 -11  -1 145.785 81.4928   2
  -1  11   1 131.509 93.3563   3
   1 -11  -1 87.0953 51.5060   2
   1 -12  -1 12652.5 482.320   2
  -1 -12  -1 13386.8 591.711   2
  -1  12   1 12915.3 663.133   3
  -1 -12   1 14343.0 615.390   2
   1 -12   1 13628.3 519.896   2
  -1  12  -1 12514.7 684.611   3
   1 -13   1-33.8705 58.3900   2
  -1  13   1 167.235 98.5089   3
  -1  13  -1-39.9317 99.1190   3
  -1 -13  -1 58.6896 74.5300   2
  -1 -13   1-15.6597 60.3824   2
  -1  14  -1 5252.31 491.958   3
  -1  14   1 4599.58 440.556   3
  -1 -14   1 5283.03 409.880   2
  -1 -14  -1 5572.21 418.118   2
  -1  15   1 213.236 112.648   3
   2   0   1 9086.01 262.260   1
   2   0  -1 9401.42 223.957   1
  -2   0   1 9460.28 236.228   2
  -2   0  -1 9310.56 262.622   1
   2   0  -1 9275.55 236.540   2
  -2   0   1 9190.66 223.361   1
  -2   0  -1 9204.33 243.936   2
   2   1   1 22002.4 412.510   1
  -2  -1  -1 21681.6 408.514   2
   2   1  -1 21568.8 402.753   2
  -2   1   1 21317.6 294.773   1
  -2  -1   1 22045.3 390.407   1
  -2   1  -1 21882.7 406.642   1
  -2   1  -1 21512.0 341.072   2
   2  -1  -1 21159.1 306.489   2
   2  -1   1 21406.4 405.448   1
   2  -1  -1 22440.2 299.478   1
  -2  -1   1 21630.6 406.002   2
  -2  -1  -1 22023.4 413.163   1
  -2   1   1 21448.4 302.982   2
   2  -1   1 21985.4 344.314   2
  -2   2   1 24857.1 263.216   2
  -2  -2   1 25575.3 466.476   1
  -2   2  -1 25136.1 346.518   2
   2  -2  -1 24629.5 266.785   2
  -2  -2  -1 25276.1 464.612   1
  -2   2  -1 24996.4 458.085   1
   2  -2   1 25317.4 458.687   1
   2   2   1 24955.1 463.549   1
   2  -2  -1 25322.2 291.902   1
   2  -2   1 25578.9 351.606   2
   2   2  -1 25110.2 476.595   2
  -2  -2   1 24809.7 486.042   2
  -2   2   1 24922.1 286.466   1
   2  -2   1 25515.0 496.598   3
  -2   3  -1 4641.09 213.166   1
   2  -3   1 4575.70 234.222   3
  -2   3  -1 4739.94 236.723   3
   2  -3   1 4760.97 151.557   2
   2  -3  -1 4889.06 222.723   3
   2  -3   1 4289.58 204.769   1
   2  -3  -1 4593.27 130.213   1
  -2  -3   1 4764.53 237.257   2
  -2   3  -1 4833.89 153.300   2
   2   3   1 4491.96 210.870   1
  -2  -3  -1 4813.33 218.093   1
   2   3  -1 4709.51 228.503   2
  -2   4  -1 452.411 54.9635   2
   2   4   1 468.145 83.4379   1
   2  -4   1 483.781 54.3866   2
  -2   4  -1 343.065 95.0880   3
   2  -4   1 561.557 86.5728   1
  -2  -4   1 602.356 98.3728   2
  -2   4   1 312.544 74.7059   3
   2  -4  -1 492.728 87.6381   3
   2  -4  -1 384.981 32.0803   2
   2  -4  -1 429.185 51.5163   1
  -2  -4  -1 486.137 80.0538   1
  -2   5  -1 57.3341 54.4646   3
   2  -5   1 185.338 42.1997   2
   2  -5  -1 215.153 45.3577   1
  -2  -5  -1 174.752 60.7889   1
   2  -5  -1 106.149 23.0503   2
  -2   5  -1 79.2890 33.3088   2
  -2   5   1 91.5030 59.7502   3
   2  -5   1 117.778 55.3693   1
   2  -5  -1 241.307 31.2203   2
  -2  -5   1 53.5691 57.2294   2
  -2   6   1 4773.53 286.851   3
   2  -6  -1 4100.59 137.438   2
   2  -6  -1 4683.47 152.313   2
   2  -6   1 4735.93 191.493   2
  -2  -6   1 4930.82 291.789   2
   2  -6  -1 4827.88 198.404   1
  -2  -6  -1 4635.84 259.865   1
  -2   6  -1 3981.88 179.330   2
  -2   6  -1 4462.01 292.231   3
   2  -6   1 4722.85 260.609   1
   2  -7   1 3574.62 241.841   1
  -2  -7  -1 3718.07 249.300   1
   2  -7  -1 3631.08 152.155   2
   2  -7  -1 3390.37 143.496   2
  -2   7   1 4159.87 287.341   3
   2  -7   1 3719.27 185.722   2
  -2   7  -1 3407.07 274.352   3
  -2  -7   1 3557.09 257.743   2
   2  -7  -1 3855.54 197.379   1
  -2   8   1 2167.60 228.575   3
   2  -8   1 2073.86 197.763   1
   2  -8   1 1992.75 148.848   2
  -2  -8  -1 1870.51 192.097   1
   2  -8  -1 2023.02 126.593   2
  -2  -8   1 1948.76 206.280   2
   2  -8  -1 1912.91 122.668   2
  -2   8  -1 1961.04 232.130   3
  -2   9  -1 2378.38 263.051   3
   2  -9  -1 1929.75 133.948   2
  -2  -9  -1 2134.37 222.811   2
  -2   9   1 2390.18 255.093   3
  -2  -9   1 2196.58 226.101   2
   2  -9   1 2099.89 161.727   2
   2  -9  -1 2221.20 146.473   2
   2 -10  -1 8.81369 29.4818   2
  -2  10  -1-58.9681 112.662   3
  -2 -10  -1 48.5256 61.6943   2
  -2 -10   1 50.9097 69.5195   2
   2 -10  -1-54.6832 37.4960   2
  -2  10   1 103.993 88.0950   3
   2 -10   1-6.57469 41.6705   2
   2 -11   1 309.224 73.4098   2
   2 -11   1 383.963 106.446   1
  -2  11  -1 284.378 121.801   3
  -2 -11   1 204.695 108.096   2
  -2  11   1 353.298 138.097   3
   2 -11  -1 247.430 56.8875   2
  -2 -11  -1 398.305 122.871   2
   2 -12   1 87.3384 63.5756   1
  -2  12   1-19.9972 83.2188   3
  -2 -12   1 8.39441 61.7271   2
  -2  12  -1-23.0210 86.4503   3
   2 -12   1 76.0494 50.0663   2
   2 -12  -1 32.3198 64.7811   1
  -2 -12  -1-26.6810 88.5895   2
  -2 -13   1 65.4424 76.3265   2
   2 -13   1 295.968 109.962   1
  -2  13  -1 226.086 129.609   3
   2 -13  -1 83.8554 66.2120   1
  -2  13   1 83.5900 89.9635   3
  -2 -13  -1 188.975 112.643   2
  -2  14  -1 37.1054 91.7452   3
  -2  14   1-52.9221 100.434   3
   2 -14   1 43.3197 58.3054   1
  -2 -14   1-47.1534 92.6020   2
  -2 -14  -1-22.5462 78.9735   2
  -2 -15   1 27.4917 79.2169   2
  -2 -15  -1 184.296 115.241   2
   2 -15   1 82.6302 84.2911   1
  -3   0  -1 97205.6 904.215   2
  -3   0   1 95075.7 884.279   1
  -3   0   1 98529.0 885.094   2
   3   0  -1 96549.8 884.692   1
   3   0   1 98142.7 1005.53   1
  -3   0  -1 96818.5 994.613   1
  -3   1  -1 16956.5 416.860   1
   3  -1  -1 17042.7 344.725   1
   3   1   1 16787.5 426.362   1
  -3   1  -1 16650.0 346.971   2
  -3  -1   1 17255.1 412.702   2
   3  -1   1 16458.4 409.135   1
  -3   1   1 16918.9 343.250   1
  -3   1   1 16239.1 322.309   2
  -3  -1   1 16906.8 406.014   1
  -3  -1  -1 17326.0 433.171   1
   3   1  -1 16348.9 398.498   1
  -3   2  -1 29136.5 421.545   2
   3   2   1 28596.9 573.392   1
  -3  -2  -1 28960.1 585.407   1
   3  -2   1 28459.9 552.414   1
   3  -2   1 29970.0 428.825   2
  -3   2  -1 29132.0 552.056   1
  -3   2   1 28269.6 422.067   1
  -3  -2   1 28411.6 565.956   1
  -3   2   1 29207.8 352.546   2
   3  -2  -1 27658.7 417.360   1
  -3  -2   1 28807.4 573.833   2
  -3  -3  -1 14247.9 429.872   1
  -3   3  -1 14692.7 279.903   2
  -3   3   1 14080.8 174.691   2
  -3   3  -1 14624.6 408.454   1
  -3  -3   1 14481.4 432.334   1
   3  -3  -1 13911.0 293.016   1
   3  -3   1 14203.7 402.096   1
   3  -3   1 14611.4 453.391   3
   3  -3  -1 14294.8 427.701   3
   3   3   1 15125.3 434.739   1
   3  -3   1 13976.3 279.038   2
  -3  -3   1 13799.2 430.699   2
  -3   3   1 13646.5 291.368   1
  -3  -4   1 53288.0 883.324   1
   3  -4   1 53495.6 933.671   3
  -3  -4   1 52296.7 896.198   2
  -3  -4  -1 54723.2 882.475   1
   3  -4   1 53841.4 529.534   2
   3  -4   1 52660.4 802.950   1
   3  -4  -1 53066.1 581.280   1
   3   4   1 53661.5 861.474   1
   3  -4  -1 54290.5 883.689   3
  -3   4  -1 55796.7 529.774   2
  -3   4  -1 52624.5 800.356   1
  -3  -5   1 1354.35 155.714   1
  -3  -5   1 1433.36 164.224   2
  -3   5  -1 1217.62 83.7470   2
   3  -5   1 1247.28 136.275   1
  -3  -5  -1 1341.56 149.430   1
   3  -5   1 1476.39 91.0443   2
   3  -5  -1 1220.15 147.809   3
   3   5   1 1647.21 168.467   1
   3  -5  -1 1466.04 107.537   1
   3  -5   1 1217.94 158.126   3
  -3  -6   1 64257.4 1113.48   2
  -3   6  -1 63788.3 1145.27   3
   3  -6  -1 64434.5 750.125   1
   3  -6   1 62498.6 969.169   1
  -3  -6  -1 63123.0 1047.93   1
   3  -6   1 63083.4 602.320   2
  -3   6  -1 61786.5 616.070   2
  -3  -6   1 61575.0 1069.44   1
  -3   7  -1 2200.26 232.219   3
   3  -7   1 2034.85 117.651   2
   3  -7  -1 1912.66 145.412   1
  -3  -7  -1 2133.30 204.441   1
  -3   7  -1 1585.53 112.211   2
   3  -7   1 2092.36 191.354   1
  -3   7   1 1945.54 218.099   3
  -3  -7   1 2432.26 235.236   2
  -3  -8   1 36362.2 918.201   2
  -3   8   1 37194.3 949.239   3
  -3   8  -1 33765.1 940.019   3
   3  -8  -1 36803.5 669.327   1
   3  -8   1 34907.1 520.302   2
   3  -8   1 36938.3 827.869   1
  -3   9   1 50.3108 71.8325   3
   3  -9  -1 53.2869 17.8462   2
   3  -9   1 25.0419 31.3843   2
  -3   9  -1 140.021 91.1871   3
   3  -9  -1 30.6795 16.9034   2
   3  -9   1-8.10820 53.0545   1
  -3  -9  -1 42.6159 78.9915   2
  -3  -9   1 52.0139 80.7059   2
   3  -9  -1-40.1603 49.4235   1
   3 -10  -1 7470.15 200.311   2
  -3 -10   1 7828.59 475.074   2
  -3  10   1 8499.03 511.350   3
   3 -10   1 7715.90 277.701   2
  -3 -10  -1 7575.62 470.541   2
  -3  10  -1 7551.12 503.634   3
   3 -10  -1 7615.71 199.344   2
   3 -10  -1 7928.72 357.001   1
   3 -10   1 7599.78 417.824   1
  -3 -11   1 605.317 140.561   2
  -3 -11  -1 840.345 168.398   2
  -3  11  -1 718.380 170.513   3
   3 -11   1 745.676 143.194   1
   3 -11   1 739.904 94.4576   2
  -3  11   1 737.076 181.568   3
   3 -11  -1 669.319 120.553   1
   3 -12   1 9025.08 492.436   1
   3 -12  -1 7891.79 391.516   1
  -3  12   1 9320.71 593.535   3
  -3  12  -1 9065.38 609.808   3
  -3 -12  -1 9404.28 560.233   2
  -3 -12   1 8344.07 533.853   2
  -3  13   1 170.923 99.9583   3
   3 -13   1-17.9187 58.9300   1
  -3  13  -1-28.7566 88.2475   3
  -3 -13  -1 222.879 116.947   2
  -3 -13   1-14.3209 87.3966   2
   3 -14   1 2242.38 267.978   1
  -3  14   1 1976.30 315.095   3
  -3 -14  -1 2391.84 318.221   2
  -3 -14   1 1940.19 293.589   2
  -3  14  -1 3188.46 399.355   3
  -3 -15  -1 26.3507 86.3818   2
  -3 -15   1 87.2205 104.511   2
   4   0   1 24.3459 54.9904   1
  -4   0   1 22.4383 36.1351   2
  -4   0   1 40.0456 38.8948   1
  -4   0  -1 14.9623 44.8575   1
   4   0  -1-6.37819 40.9923   1
  -4   0  -1-14.4478 35.3328   2
  -4  -1  -1 4226.07 243.873   1
  -4   1   1 4515.79 214.346   1
  -4  -1   1 4479.30 237.344   2
  -4  -1   1 4474.17 239.429   1
   4  -1   1 4462.47 246.046   1
   4  -1  -1 4179.32 207.964   1
   4   1   1 4291.83 246.907   1
  -4   1  -1 4325.87 202.983   2
   4   1  -1 4325.14 233.858   1
  -4   1   1 4409.59 195.256   2
  -4   1  -1 4297.08 240.308   1
  -4   2   1 6363.82 206.329   2
  -4  -2   1 6400.07 302.875   2
   4  -2   1 6140.89 285.689   1
   4   2  -1 6163.31 294.635   1
  -4  -2  -1 6538.73 315.638   1
  -4   2  -1 6609.17 297.840   1
  -4   2   1 6371.63 245.999   1
  -4   2  -1 6002.87 220.454   2
   4   2   1 6558.25 310.594   1
  -4  -2   1 6332.02 297.597   1
   4  -2  -1 6334.43 242.697   1
  -4   3  -1 510.045 64.6301   2
   4  -3   1 570.183 99.8274   1
   4   3   1 424.530 87.6690   1
  -4   3   1 498.990 72.1712   1
  -4  -3   1 507.441 98.4337   2
  -4  -3   1 561.962 101.493   1
  -4   3  -1 632.864 102.909   1
   4  -3  -1 537.610 73.2469   1
  -4  -3  -1 516.024 101.190   1
  -4   3   1 547.638 50.1494   2
   4  -3   1 525.086 104.525   3
   4  -4   1 33.9230 49.8039   3
  -4   4   1 121.118 40.8268   1
  -4   4  -1 185.210 65.9713   1
   4  -4  -1 70.5405 38.1177   1
  -4  -4   1 86.6493 49.1065   1
  -4  -4  -1 58.7465 70.8792   1
   4  -4  -1 102.516 64.0165   3
   4   4   1 120.430 69.1450   1
  -4   4  -1 43.4993 26.3250   2
   4  -4   1 129.779 63.6683   1
  -4  -4   1 71.5468 58.7467   2
   4   5   1 802.049 132.767   1
  -4  -5  -1 794.804 128.874   1
   4  -5   1 914.839 143.433   3
  -4  -5   1 860.935 138.585   1
   4  -5   1 826.935 121.824   1
  -4   5  -1 784.196 64.2617   2
   4  -5  -1 749.618 133.363   3
  -4  -5   1 891.681 143.432   2
   4  -5   1 937.662 71.7234   2
   4  -5  -1 752.740 85.6972   1
   4  -6   1 7967.80 367.422   1
   4  -6  -1 7736.20 282.546   1
  -4  -6   1 8481.99 433.700   2
  -4   6  -1 7531.28 187.655   2
   4  -6   1 7873.56 189.070   2
   4  -6  -1 8081.11 422.331   3
   4  -7   1 114.152 63.0175   1
  -4  -7   1 283.430 104.384   2
   4  -7   1 158.404 28.8973   2
   4  -7  -1 125.786 50.9445   1
   4  -8   1 2330.30 217.463   1
  -4  -8   1 2168.75 254.287   2
   4  -8   1 2374.27 101.232   2
   4  -8  -1 2474.21 181.259   1
   4  -9  -1 82.0037 57.5128   1
  -4  -9   1 123.340 58.0365   2
  -4  -9  -1 118.216 85.0274   2
   4  -9   1 155.173 82.0245   1
   4  -9   1 139.124 27.2483   2
   4 -10   1 86.0593 66.0544   1
   4 -10  -1 78.8486 62.2751   1
  -4 -10  -1 155.462 108.578   2
  -4 -10   1 98.2578 87.7939   2
   4 -11  -1 1094.15 147.901   1
  -4 -11   1 993.391 196.032   2
   4 -11   1 1313.43 190.056   1
  -4 -11  -1 1317.62 226.523   2
  -4 -12   1 43.4344 101.954   2
  -4 -12  -1-11.1586 128.004   2
   4 -12   1-17.5636 54.7813   1
  -4  12  -1 63.8295 99.8999   3
   4 -13   1-113.485 77.1971   1
  -4 -13   1-22.7177 92.0707   2
  -4 -13  -1 60.5222 90.3586   2
  -4 -14   1 140.643 111.741   2
  -4 -14  -1 98.9459 118.165   2
  -5   0  -1 106136. 1327.38   1
   5   0  -1 105659. 1221.39   1
   5   0   1 107013. 1324.83   1
  -5   0   1 103946. 1153.14   2
  -5   0   1 105494. 1229.61   1
  -5   0  -1 106313. 1188.82   2
   5   1  -1 1473.21 165.857   1
  -5   1   1 1327.94 139.815   1
  -5  -1  -1 1269.40 155.103   1
   5  -1   1 1122.67 147.787   1
  -5   1  -1 1435.45 158.554   1
  -5   1  -1 1427.23 135.083   2
  -5  -1   1 1345.64 153.901   1
  -5   1   1 1392.27 126.996   2
   5   1   1 1265.75 156.490   1
  -5  -1   1 1347.19 150.624   2
   5  -1  -1 1145.29 136.886   1
  -5   2   1 23887.3 459.318   2
  -5   2   1 22561.6 536.351   1
   5   2  -1 23411.2 624.689   1
  -5   2  -1 22446.4 477.032   2
   5  -2   1 22940.1 613.097   1
   5  -2  -1 23061.4 534.112   1
  -5   2  -1 23689.1 620.083   1
   5   2   1 22622.1 638.411   1
  -5  -2  -1 23264.4 657.760   1
  -5  -2   1 24395.8 646.397   1
  -5  -2   1 22287.2 609.174   2
  -5  -3   1 1391.14 168.498   1
  -5  -3   1 1279.95 163.288   2
   5  -3   1 1385.71 159.470   1
  -5  -3  -1 1288.53 165.688   1
  -5   3   1 1459.30 100.045   2
  -5   3  -1 1631.87 170.145   1
   5   3   1 1169.82 155.785   1
  -5   3  -1 1335.10 111.764   2
  -5   3   1 1200.67 128.406   1
   5  -3  -1 1410.83 134.738   1
   5  -4  -1 34389.0 638.704   1
   5  -4   1 35380.7 772.295   1
  -5   4  -1 34414.5 500.809   2
   5  -4  -1 33149.6 843.005   3
  -5   4   1 33933.9 647.884   1
  -5   4  -1 35856.6 784.947   1
   5   4   1 34488.0 839.088   1
  -5   4   1 33317.5 309.012   2
  -5  -4   1 34543.3 845.079   2
  -5   5  -1 3675.17 257.602   1
   5  -5   1 4056.23 271.652   1
   5  -5  -1 3219.05 200.256   1
  -5   5  -1 3504.05 138.430   2
  -5  -5   1 3731.69 308.259   2
   5   5   1 3451.01 280.178   1
  -5   5   1 3209.26 201.153   1
   5  -6   1 10508.3 445.294   1
   5  -6  -1 11035.2 372.500   1
  -5  -6   1 10478.3 529.695   2
   5   6   1 10015.9 485.780   1
  -5  -7   1-14.0236 77.1508   2
   5  -7   1 56.6171 65.5275   1
   5  -7  -1 59.4175 49.4829   1
   5  -8   1 12115.0 513.063   1
   5  -8  -1 11463.4 404.289   1
  -5  -8   1 11948.5 605.041   2
  -5  -9  -1 571.437 157.363   2
   5  -9  -1 344.503 85.6792   1
  -5  -9   1 341.819 135.275   2
   5  -9   1 245.036 82.1867   1
   5 -10  -1 4748.97 286.379   1
  -5 -10   1 4352.98 395.449   2
   5 -10   1 4109.63 322.574   1
  -5 -10  -1 4420.41 399.396   2
  -5 -11  -1-75.8879 103.313   2
   5 -11   1 59.2935 71.9076   1
  -5 -11   1 57.9732 81.1464   2
   5 -12   1 6113.92 421.099   1
  -5 -12   1 6488.37 525.046   2
  -5 -12  -1 6097.16 511.939   2
  -5 -13  -1 3.34432 91.0080   2
  -5 -13   1 168.872 115.379   2
  -6   0   1 6335.44 317.668   2
   6   0  -1 5977.90 324.815   1
  -6   0   1 5953.72 326.762   1
   6   0   1 6189.86 355.052   1
  -6   0  -1 6617.56 331.083   2
   6  -1   1 1738.29 190.879   1
  -6  -1   1 1617.64 172.272   2
  -6   1   1 1603.28 149.105   2
   6   1   1 1585.56 189.585   1
  -6   1  -1 1867.70 167.200   2
  -6  -1  -1 1695.83 178.792   2
  -6   1  -1 1480.77 176.131   1
   6  -1  -1 1905.08 185.888   1
   6   1  -1 1785.78 188.690   1
  -6  -1   1 1998.66 199.337   1
  -6   1   1 1658.13 174.409   1
  -6   2  -1 65.3433 43.7291   2
  -6  -2   1 96.5368 75.3177   2
  -6   2  -1 92.8626 61.5847   1
  -6   2   1 145.536 62.1013   1
  -6   2   1 91.2152 41.4006   2
   6  -2   1 102.167 68.6394   1
   6  -2  -1 167.603 75.4309   1
   6   2  -1 118.456 70.9564   1
   6   2   1 63.6096 52.4322   1
   6   3   1 4089.05 309.996   1
   6   3  -1 4316.80 307.899   1
  -6   3  -1 4309.27 296.381   1
  -6   3   1 4428.21 266.927   1
  -6   3   1 3857.19 187.588   2
   6  -3   1 3567.38 270.362   1
  -6   3  -1 3752.83 202.586   2
   6  -3  -1 3928.96 249.511   1
  -6  -3   1 4175.69 316.410   2
   6   4   1 2294.81 238.395   1
   6  -4   1 1850.51 201.340   1
  -6   4   1 2067.04 105.158   2
  -6  -4   1 2398.84 260.024   2
  -6   4   1 1965.06 101.721   2
  -6   4   1 1966.97 179.116   1
  -6   4  -1 1946.48 204.340   1
  -6   4  -1 1953.88 133.531   2
   6  -4  -1 2262.90 189.986   1
   6   5   1 2123.33 242.856   1
   6  -5   1 2201.68 218.744   1
   6  -5  -1 2186.78 182.374   1
  -6   5   1 2201.65 184.057   1
  -6   5  -1 1965.47 114.850   2
  -6  -5   1 1771.93 224.471   2
   6  -6   1 386.099 102.515   1
   6  -6  -1 497.601 95.2752   1
  -6   6   1 694.869 104.210   1
   6   6   1 798.970 159.934   1
  -6  -6   1 324.917 116.964   2
   6  -7  -1 251.956 65.7875   1
   6  -7   1 242.215 92.0688   1
  -6  -7   1 354.854 124.202   2
  -6  -8   1 469.504 136.289   2
   6  -8   1 423.772 118.266   1
  -6  -8  -1 317.169 121.386   2
   6  -8  -1 291.137 75.8993   1
   6  -9  -1-37.0158 49.6698   1
  -6  -9  -1 0.67692 88.6155   2
  -6  -9   1 114.780 99.7270   2
   6  -9   1 111.588 75.6839   1
  -6 -10  -1 391.446 146.357   2
   6 -10   1 67.8020 72.2055   1
  -6 -10   1 255.188 120.749   2
   6 -11   1 168.866 87.4278   1
  -6 -11   1 447.650 161.655   2
  -6 -11  -1 421.782 156.294   2
  -6 -12   1 527.552 193.312   2
  -6 -12  -1 676.076 188.668   2
  -7   0  -1 15068.3 537.617   2
   7   0  -1 15441.6 574.481   1
  -7   0   1 16319.7 548.239   2
   7   0   1 16512.4 629.036   1
  -7  -1   1 636.881 129.492   2
  -7   1  -1 759.275 123.096   2
   7  -1  -1 806.892 142.949   1
   7   1  -1 694.334 149.965   1
  -7   1   1 801.711 121.777   2
   7   1   1 877.967 157.390   1
   7  -1   1 728.188 145.442   1
   7  -2   1 5916.80 370.876   1
  -7   2   1 6429.63 356.158   1
   7  -2  -1 6340.72 351.593   1
  -7   2  -1 6495.36 313.062   2
   7   2  -1 6307.36 388.423   1
   7   2   1 6211.79 403.041   1
  -7  -2   1 5771.98 370.341   2
  -7   2   1 6613.10 308.857   2
   7   3   1 128.167 99.7127   1
  -7   3   1 68.9645 65.7706   1
  -7   3   1 53.0857 45.7553   2
   7  -3  -1 21.6172 55.4341   1
  -7  -3   1 192.291 113.432   2
   7  -3   1 3.04071 68.6550   1
   7   3  -1 113.444 99.4609   1
  -7   3  -1 87.3859 49.8239   2
  -7   4   1 22749.7 658.035   1
   7   4   1 21853.9 780.313   1
   7  -4  -1 21028.7 619.213   1
   7  -4   1 21241.2 706.315   1
  -7   4  -1 20123.0 474.090   2
  -7   4   1 21061.9 392.557   2
  -7  -4   1 21877.0 771.218   2
  -7   4   1 21795.5 406.953   2
  -7  -5   1 76.5271 98.3545   2
   7   5   1 68.2606 71.5750   1
  -7   5  -1 33.4030 28.1792   2
   7  -5  -1 89.1448 69.0957   1
   7  -5   1 18.4461 61.6534   1
  -7   5   1 122.175 79.2564   1
  -7   6   1 11939.0 463.199   1
  -7   6  -1 11162.3 222.796   2
  -7  -6   1 13196.5 655.050   2
   7  -6   1 12401.4 554.693   1
   7   6   1 11562.8 595.320   1
   7  -6  -1 13271.0 487.565   1
  -7  -7   1 129.193 113.923   2
  -7  -7  -1 207.886 108.243   2
   7  -7  -1 106.018 72.8281   1
   7  -7   1 154.972 89.2215   1
   7  -8   1 11830.1 567.000   1
   7  -8  -1 12854.1 489.767   1
  -7  -8  -1 12826.8 696.690   2
  -7  -8   1 12530.6 687.262   2
  -7  -9  -1 518.581 174.290   2
  -7  -9   1 450.824 154.504   2
   7  -9   1 638.926 145.044   1
  -7 -10  -1 4529.55 450.382   2
   7 -10   1 4183.27 354.293   1
  -7 -11  -1 66.2361 107.412   2
  -7 -11   1 98.2967 94.0589   2
  -8   0   1 3575.60 276.625   2
   8   0  -1 3084.99 279.149   1
   8   0   1 3494.86 315.898   1
   8  -1  -1-19.2143 62.9034   1
   8   1  -1 12.1711 73.1435   1
  -8   1  -1-40.0147 65.5381   2
   8   1   1 53.5103 88.1141   1
  -8  -1   1 26.6265 63.1431   2
   8  -1   1 34.1589 63.4911   1
  -8   1   1 86.3821 58.0235   2
  -8   2   1 369.404 85.0494   2
   8  -2  -1 229.271 89.5180   1
  -8  -2   1 143.254 77.8940   2
   8   2  -1 474.388 135.200   1
   8  -2   1 313.856 114.457   1
   8   2   1 283.564 94.6585   1
  -8   2  -1 346.496 86.6431   2
  -8   3   1 80.5032 55.0285   2
   8  -3  -1 71.6350 66.3668   1
  -8  -3   1 324.002 119.155   2
  -8   3  -1 58.3496 45.7190   2
   8   3  -1 363.940 131.896   1
   8  -3   1-49.5780 69.1414   1
   8   3   1 90.8642 78.3398   1
  -8   3   1 66.8243 44.8663   2
   8   4   1 86.4294 100.357   1
   8  -4   1 67.1836 67.7972   1
   8  -4  -1 16.3186 66.7672   1
  -8  -4   1-80.2817 83.6505   2
  -8   4  -1-22.3330 37.4074   2
  -8   4   1-32.2851 36.6168   2
   8  -5   1 3.09970 72.7067   1
   8   5   1-29.5582 63.8448   1
  -8  -5   1 6.90878 86.6180   2
  -8  -5  -1 15.7471 82.4931   2
  -8   5  -1-8.59414 24.0769   2
   8  -5  -1-40.6825 69.3758   1
   8   6   1-1.28779 78.4063   1
  -8  -6   1 233.044 130.971   2
  -8  -6  -1-0.67625 90.0872   2
   8  -6   1 75.1890 84.6127   1
   8  -6  -1 11.6078 65.5146   1
   8  -7  -1 103.108 77.3394   1
   8  -7   1 42.7252 78.4510   1
  -8  -7   1-47.6355 89.6215   2
  -8  -7  -1-66.8251 89.6030   2
  -8  -8   1 26.7525 79.0362   2
  -8  -8  -1 110.505 80.1965   2
   8  -8   1-76.9157 105.082   1
  -8  -9  -1-194.913 121.628   2
   8  -9   1-72.8272 74.9045   1
  -8  -9   1 81.7399 99.3450   2
   9   0   1 10872.2 593.709   1
  -9   0  -1 11618.4 565.123   2
   9   0  -1 10138.5 546.405   1
  -9   0   1 11428.0 539.555   2
   9   1  -1 436.748 144.635   1
  -9  -1   1 355.114 121.235   2
  -9   1   1 339.502 107.181   2
  -9  -1  -1 283.760 138.454   2
   9   1   1 569.931 160.876   1
  -9   1  -1 308.016 105.290   2
   9  -1  -1 450.895 133.178   1
   9  -1   1 501.347 146.970   1
  -9  -2  -1 7994.12 498.441   2
  -9   2   1 8445.83 413.189   2
   9   2  -1 8433.06 517.147   1
   9  -2  -1 7882.72 463.904   1
  -9  -2   1 7945.07 496.302   2
   9  -2   1 8070.01 502.843   1
  -9   2  -1 8249.86 417.845   2
   9   2   1 9134.25 560.254   1
   9  -3  -1 190.619 102.434   1
  -9  -3   1 19.2365 86.4370   2
  -9  -3  -1 85.9609 104.939   2
   9  -3   1-16.8645 91.9665   1
  -9   3   1 64.1712 50.3380   2
   9   3   1 120.173 105.721   1
  -9   3  -1 12.3178 58.4097   2
  -9  -4  -1 5993.76 465.896   2
   9  -4  -1 5376.73 372.891   1
   9   4   1 6220.65 477.723   1
  -9  -4   1 5314.65 441.690   2
   9  -4   1 5329.62 416.306   1
   9  -5  -1 86.8261 83.4978   1
  -9  -5  -1-3.52307 98.6116   2
  -9  -5   1 179.848 125.766   2
   9   5   1 85.6305 84.6757   1
   9  -5   1 238.559 139.857   1
   9  -6   1 1863.50 253.998   1
   9   6   1 1691.78 273.269   1
  -9  -6  -1 2322.01 326.380   2
   9  -6  -1 1648.90 211.340   1
  -9  -6   1 2259.88 313.556   2
   9  -7   1-19.0836 85.9839   1
  -9  -7  -1-9.70009 79.2811   2
  -9  -7   1-131.157 147.078   2
   9  -8   1 1943.94 270.559   1
  -9  -8  -1 1733.79 309.705   2
  -9  -8   1 1626.54 294.876   2
 -10   0  -1 73.2336 66.5897   2
  10   0   1-36.3576 99.8245   1
  10   0  -1-91.7066 119.159   1
 -10   0   1 100.501 81.4504   2
  10   1  -1 32.3764 83.9670   1
 -10   1   1 174.120 78.3007   2
  10   1   1 73.2171 100.432   1
 -10   1  -1 104.658 71.9289   2
  10  -1   1-111.511 106.983   1
  10  -1  -1 298.840 131.828   1
 -10  -1   1-51.9168 89.0703   2
 -10  -1  -1 2.97166 73.6636   2
 -10  -2  -1-134.019 104.852   2
  10  -2   1 2.67303 91.9063   1
  10  -2  -1-94.0414 84.6074   1
  10   2   1 39.8132 92.4673   1
 -10  -2   1-45.3734 85.7790   2
  10   2  -1-95.1338 120.120   1
 -10  -3   1 616.878 174.389   2
  10  -3   1 385.600 125.417   1
  10   3   1 566.850 178.240   1
  10  -3  -1 464.976 134.988   1
 -10  -3  -1 393.633 164.356   2
  10  -4  -1 195.281 96.1595   1
 -10  -4  -1-53.8810 119.792   2
  10   4   1 48.9868 113.463   1
  10  -4   1 218.298 134.302   1
  10  -5   1 126.688 112.081   1
 -10  -5   1 247.487 123.001   2
  10   5   1-160.962 115.982   1
 -10  -5  -1-48.8651 101.513   2
 -10  -6   1 179.179 113.778   2
  10  -6   1 68.3041 82.0143   1
  10  -7   1-251.921 122.136   1
  11   0   1 1055.29 227.226   1
  11   0  -1 1421.68 239.441   1
 -11  -1   1 157.175 104.390   2
  11   1  -1 139.360 89.9897   1
 -11  -1  -1-16.2760 96.0315   2
  11  -1  -1 167.461 110.062   1
  11  -1   1 89.2849 91.8093   1
  11   1   1 2.40585 89.7382   1
  11  -2   1 2300.50 312.937   1
 -11  -2  -1 1964.45 296.020   2
  11   2   1 1832.62 296.897   1
 -11  -2   1 2195.63 307.619   2
  11  -2  -1 1839.53 262.380   1
 -11  -3  -1 149.664 145.220   2
 -11  -3   1 333.496 147.071   2
  11  -3  -1 233.103 107.277   1
  11  -3   1 153.342 98.9768   1
 -11  -4   1 2026.46 310.812   2
 -11  -4  -1 1972.58 321.935   2
  11  -4   1 2481.08 328.143   1
  11  -5   1-152.768 148.023   1
   0   0   2 93057.0 711.168   1
   0   0  -2 92598.9 815.787   2
   0   0   2 93309.5 816.370   2
   0  -1  -2 72.6479 30.5071   1
   0   1   2 13.3353 25.6988   1
   0   1  -2 93.2366 45.4042   2
   0   1   2 13.2575 42.6424   2
   0  -1  -2 53.5723 34.8546   2
   0  -1   2 80.2387 48.9916   2
   0   2   2 1658.47 82.2645   1
   0   2   2 1508.96 111.139   2
   0   2  -2 1594.90 121.798   2
   0  -2  -2 1500.42 78.3407   1
   0  -2  -2 2057.09 127.985   2
   0  -2   2 1636.32 124.614   2
   0   3   2 26.0214 35.8879   2
   0  -3  -2-17.8554 29.5292   2
   0   3  -2-2.55987 33.8134   2
   0  -3  -2 16.1521 20.1153   1
   0  -3   2-9.69457 39.0483   2
   0   3   2 0.47981 22.3819   1
   0  -4  -2 115928. 796.611   1
   0   4  -2 115155. 1133.55   2
   0  -4   2 112819. 1123.56   2
   0  -4  -2 115186. 1037.40   2
   0  -5  -2-13.5410 31.9637   2
   0  -5   2 48.0139 54.8955   2
   0  -5  -2-15.9852 27.2445   1
   0   5  -2 22.6041 39.1207   2
   0   6  -2 23751.7 583.654   2
   0  -6   2 22445.5 563.614   2
   0  -6  -2 23576.9 446.856   1
   0  -6  -2 23408.8 534.845   2
   0  -7  -2 21.9589 40.6885   1
   0  -7  -2-25.8342 49.2231   2
   0  -7   2-19.8214 54.9479   2
   0   7  -2-8.74864 41.5992   2
   0  -8  -2 49619.8 869.006   2
   0   8  -2 49815.5 943.706   2
   0  -8  -2 50305.4 789.570   1
   0  -8   2 50073.4 933.659   2
   0  -9  -2 8.46149 40.5297   2
   0  -9  -2-7.73707 40.0651   1
   0  -9   2 36.4591 50.6614   2
   0 -10  -2 14715.3 519.906   2
   0 -10  -2 13690.7 473.452   1
   0 -10   2 14665.8 550.487   2
   0 -11  -2 90.6284 66.0864   2
   0 -11   2 48.1620 52.7121   2
   0 -11  -2-73.5768 54.5506   1
   0 -12  -2 10855.5 506.264   2
   0 -12   2 10319.7 507.135   2
   0  12   2 10580.0 583.706   3
   0 -13   2-16.6340 56.6636   2
   0  13   2 52.2798 84.1128   3
   0 -13  -2 88.0099 76.6215   2
   0  14  -2 3129.76 386.354   3
   0  14   2 3162.35 364.842   3
   0 -14   2 2980.70 301.011   2
   0  15   2 67.1681 109.665   3
   1   0  -2 39773.2 546.432   2
   1   0   2 40860.8 570.872   2
   1   0   2 40453.0 541.213   1
  -1   0   2 40182.5 543.657   2
  -1   0  -2 40648.9 565.700   2
  -1   0  -2 40146.7 544.651   1
   1   1   2 24172.5 401.978   1
  -1  -1  -2 24948.5 456.619   2
  -1  -1  -2 24284.3 406.284   1
   1   1  -2 24524.2 457.379   2
   1  -1   2 24359.2 379.768   3
  -1   1  -2 23473.2 429.051   2
  -1   1   2 24944.0 407.049   2
  -1   1  -2 23746.6 441.427   1
   1  -1   2 24438.3 448.004   1
   1   1   2 23621.6 451.364   2
   1  -1  -2 23747.7 402.973   2
  -1  -1   2 23657.1 450.887   2
   1  -1   2 23637.8 433.410   2
  -1   2  -2 12483.7 320.220   2
   1  -2  -2 12387.4 244.495   3
   1  -2   2 12163.6 315.070   2
   1   2  -2 12618.8 352.850   2
  -1   2   2 12595.4 284.846   2
   1  -2   2 11901.1 337.618   1
   1   2   2 12326.4 289.973   1
  -1   2  -2 12350.0 314.555   3
   1  -2  -2 11918.9 278.971   2
   1   2   2 11943.3 335.636   2
  -1  -2  -2 12568.3 339.184   2
  -1  -2   2 12669.8 355.947   2
  -1  -2  -2 12759.9 292.114   1
   1   3   2 3022.79 152.131   1
  -1  -3  -2 2871.25 150.238   1
  -1   3  -2 3207.18 172.135   2
   1  -3   2 2936.69 184.557   1
  -1   3   2 3226.70 148.288   3
  -1  -3  -2 2770.97 174.350   2
  -1   3   2 2949.44 141.316   2
   1  -3  -2 3089.39 145.214   2
   1  -3   2 2842.64 159.883   2
  -1   3  -2 2682.42 173.612   3
  -1  -3   2 2780.24 181.803   2
   1   3  -2 2905.30 183.973   2
  -1  -4  -2 129.114 53.3925   2
   1  -4  -2 187.339 25.1843   1
   1   4   2 137.716 47.7950   1
   1  -4  -2 230.755 48.4627   2
  -1  -4  -2 209.311 54.0300   1
   1   4  -2 254.438 67.4810   2
   1  -4   2 204.170 60.5067   2
  -1   4  -2 171.990 53.6030   2
  -1   4   2 161.092 52.5250   3
  -1   4  -2 122.724 64.4756   3
  -1   4   2 193.189 50.9088   2
  -1  -4   2 96.2674 58.0469   2
   1   5  -2 16545.2 491.364   2
   1  -5  -2 16300.5 374.192   2
   1  -5  -2 15624.7 262.009   1
  -1   5  -2 15590.5 498.818   3
  -1  -5  -2 16146.7 455.194   2
  -1   5  -2 17003.1 432.545   2
  -1   5   2 15465.4 430.966   3
   1  -5   2 16479.1 426.754   2
  -1  -5   2 15805.7 477.692   2
  -1  -5  -2 16001.1 401.424   1
  -1  -6  -2 202.041 59.6452   1
  -1  -6  -2 131.726 47.5190   2
  -1   6   2 134.616 65.2515   3
   1  -6  -2 196.429 40.3495   1
   1  -6  -2 161.443 49.4119   2
  -1  -6   2 195.852 66.3145   2
  -1   6  -2 147.746 77.6186   3
  -1   6  -2 134.879 53.8246   2
   1  -6   2 198.296 58.4254   2
   1   6  -2 298.202 81.5204   2
  -1  -7  -2 953.556 132.190   2
  -1  -7  -2 1009.45 116.088   1
   1  -7  -2 1070.06 95.2551   1
  -1   7  -2 1113.92 165.761   3
  -1   7   2 986.056 137.790   3
   1  -7  -2 1218.63 120.291   2
   1  -7   2 1067.59 128.134   2
  -1  -7   2 1251.69 157.089   2
  -1   7  -2 1228.03 137.916   2
   1   7  -2 1376.06 159.939   2
  -1  -8   2 1201.21 157.622   2
  -1   8  -2 1215.12 188.564   3
  -1   8   2 1084.03 159.518   3
  -1  -8  -2 1614.55 175.462   2
   1  -8  -2 1614.59 146.083   2
   1  -8  -2 1281.33 114.174   1
  -1  -8  -2 1294.59 143.732   1
   1  -8   2 1102.81 137.522   2
  -1   8  -2 1299.22 146.350   2
   1  -9  -2 3281.04 216.112   2
  -1   9  -2 2212.94 218.424   2
  -1  -9  -2 3545.61 246.068   1
   1  -9  -2 3339.48 201.044   1
  -1  -9   2 3216.85 269.355   2
  -1  -9  -2 2989.32 248.135   2
   1  -9   2 3051.77 231.634   2
  -1   9  -2 3584.81 322.645   3
  -1   9   2 3094.01 273.968   3
  -1 -10   2 687.524 136.597   2
  -1 -10  -2 446.877 101.551   1
  -1  10  -2 453.124 147.537   3
   1 -10   2 610.960 110.757   2
  -1  10   2 649.399 149.665   3
   1 -10  -2 799.954 115.731   2
   1 -10  -2 574.167 100.344   2
   1 -10  -2 496.267 90.7090   1
  -1 -11   2 650.075 142.198   2
   1 -11  -2 903.586 131.293   2
   1 -11   2 760.636 132.372   2
  -1 -11  -2 849.825 157.655   2
  -1  11  -2 1145.05 215.033   3
  -1  11   2 839.098 174.106   3
   1 -11  -2 935.586 133.319   2
  -1  12   2 91.9704 104.803   3
  -1 -12  -2-71.1849 80.2064   2
   1 -12  -2 2.55494 44.4337   2
   1 -12   2-145.975 73.2823   2
  -1  12  -2 45.5591 91.9816   3
  -1 -12   2-100.202 77.1191   2
  -1 -13  -2 216.498 98.6741   2
  -1 -13   2 177.881 98.3333   2
   1 -13   2 202.941 85.0620   2
  -1  13  -2 289.035 138.764   3
  -1  13   2 331.076 130.451   3
  -1  14   2 42.5991 102.948   3
  -1 -14   2-19.6088 75.1496   2
  -1  14  -2 138.528 116.254   3
  -1 -14  -2-34.9728 71.5353   2
  -1  15   2-61.3465 86.2126   3
   1  15   2-48.0934 83.2868   3
  -2   0  -2 118847. 1044.28   2
  -2   0  -2 117694. 1060.16   1
   2   0   2 117315. 1061.36   1
   2   0  -2 117306. 998.887   2
   2   0   2 116635. 1039.79   2
  -2   0   2 116202. 992.412   2
   2  -1   2 4524.17 200.225   2
  -2   1   2 4132.11 173.589   2
   2   1   2 4112.79 200.428   1
   2  -1   2 4266.03 212.353   1
   2   1  -2 4399.40 209.795   2
  -2   1   2 4232.25 132.765   1
   2  -1  -2 4384.66 179.740   2
   2   1   2 4048.94 206.199   2
  -2  -1  -2 4460.10 213.688   2
  -2   1  -2 4239.23 193.371   2
  -2   1  -2 4249.03 213.805   1
  -2  -1   2 3953.63 201.816   2
  -2  -1  -2 4266.81 202.896   1
  -2  -2  -2 31967.8 557.725   1
   2  -2   2 31732.3 581.459   3
   2  -2   2 33160.2 598.702   1
   2  -2  -2 31809.1 451.642   2
  -2   2  -2 32400.9 519.220   2
   2   2   2 32633.8 559.428   1
  -2   2  -2 32774.2 595.915   1
  -2  -2  -2 32809.9 607.923   2
   2  -2   2 32553.6 520.452   2
  -2   2   2 31679.6 446.987   2
  -2  -2   2 32180.5 607.512   2
   2   2  -2 32056.9 607.823   2
  -2  -3  -2 31695.3 582.753   1
  -2   3  -2 31643.5 626.724   3
   2  -3   2 32285.1 625.457   1
   2  -3  -2 32066.5 546.641   3
   2   3   2 31256.1 568.779   1
   2  -3   2 32048.8 520.856   2
  -2   3   2 31592.1 427.395   2
  -2   3  -2 32307.0 528.857   2
  -2  -3  -2 31328.0 622.583   2
   2  -3   2 32673.4 640.617   3
   2  -3  -2 30426.7 425.999   2
  -2  -3   2 31368.5 645.324   2
   2   3  -2 32221.3 647.097   2
   2  -4  -2 128525. 1199.78   3
  -2  -4  -2 129623. 1236.06   1
  -2  -4  -2 133303. 1347.53   2
  -2   4   2 130169. 854.044   2
   2  -4   2 130658. 1340.49   1
  -2   4  -2 131883. 1382.23   3
   2  -4   2 129739. 1079.98   2
  -2  -4   2 134137. 1389.98   2
  -2   4  -2 129473. 1099.44   2
   2  -4  -2 131865. 862.732   2
   2   4   2 131549. 1212.22   1
   2   4  -2 134889. 1399.49   2
  -2  -5  -2 6908.35 300.880   1
  -2   5   2 7032.03 312.966   3
   2  -5  -2 7488.60 217.360   2
   2  -5   2 6961.83 261.881   2
   2  -5  -2 6352.74 136.391   1
   2   5  -2 6723.38 333.477   2
   2  -5   2 6986.39 327.224   1
  -2   5  -2 7122.45 353.032   3
   2   5   2 7326.81 305.323   1
  -2  -5  -2 7020.27 328.739   2
  -2   5  -2 6722.88 259.547   2
  -2  -5   2 6659.66 334.153   2
  -2   6  -2 42371.6 911.835   3
  -2   6   2 42927.5 822.320   3
  -2  -6  -2 43715.8 795.240   1
  -2  -6  -2 43392.9 856.473   2
   2  -6  -2 43248.5 458.545   1
   2  -6   2 42454.6 846.785   1
  -2   6  -2 44791.3 705.044   2
   2  -6  -2 43429.4 549.483   2
   2  -6   2 44686.1 698.720   2
  -2  -6   2 41337.2 869.956   2
   2   6  -2 43816.1 897.231   2
   2  -7   2 2176.14 211.519   1
  -2   7   2 1939.78 194.674   3
   2  -7  -2 2135.54 122.611   1
   2  -7  -2 2232.69 136.784   2
  -2   7  -2 2145.25 226.796   3
  -2  -7   2 2137.37 210.646   2
  -2  -7  -2 2255.54 211.271   2
   2  -7   2 2489.71 177.922   2
  -2   7  -2 1956.24 157.731   2
  -2  -7  -2 2173.02 188.168   1
  -2   8  -2 47031.6 810.988   2
   2  -8  -2 47775.5 642.062   1
  -2   8   2 45720.5 991.150   3
  -2   8  -2 45799.2 1086.15   3
   2  -8  -2 46887.6 660.518   2
   2  -8   2 47670.4 805.320   2
  -2  -8   2 46425.9 1014.62   2
  -2  -8  -2 47410.9 912.101   1
   2  -8   2 45900.1 999.817   1
  -2   9   2 1294.48 185.196   3
   2  -9   2 1285.49 143.708   2
  -2   9  -2 1376.00 218.162   3
  -2  -9  -2 1442.41 172.881   1
   2  -9  -2 1581.80 133.533   1
  -2  -9   2 1405.53 187.938   2
   2  -9   2 1279.13 185.005   1
   2  -9  -2 1369.37 125.675   2
   2  -9  -2 1183.44 112.518   2
   2  -9  -2 1229.21 112.292   1
  -2   9  -2 1104.85 140.613   2
   2 -10  -2 10925.6 364.764   1
  -2  10  -2 12408.9 642.150   3
   2 -10  -2 11113.3 365.380   2
   2 -10  -2 11429.0 378.790   1
   2 -10   2 10804.5 528.647   1
  -2  10   2 11522.5 567.610   3
  -2 -10   2 10558.7 526.320   2
   2 -10   2 11850.1 441.245   2
   2 -10  -2 10614.4 351.739   2
   2 -11  -2 283.843 79.4862   1
   2 -11  -2 160.161 56.0531   2
  -2 -11   2 232.171 99.8310   2
  -2 -11  -2 303.584 111.543   2
  -2  11   2 187.706 110.663   3
   2 -11   2 139.120 61.8370   2
  -2  11  -2 333.099 131.599   3
   2 -11   2 252.006 107.452   1
  -2  12   2 5527.93 444.823   3
  -2 -12   2 5834.63 430.065   2
   2 -12   2 6100.21 345.829   2
  -2  12  -2 5666.99 483.471   3
   2 -12   2 6502.61 448.165   1
  -2 -12  -2 5965.19 424.867   2
   2 -13   2 166.625 99.7036   1
  -2  13  -2 583.410 183.955   3
  -2  13   2 296.175 111.257   3
  -2 -13  -2 213.092 107.325   2
  -2 -13   2 392.664 133.062   2
  -2 -14  -2 902.472 185.476   2
  -2  14   2 1200.03 239.141   3
   2 -14   2 968.091 204.291   1
  -2  14  -2 1055.23 238.412   3
  -2 -14   2 1332.62 227.337   2
  -2  15   2 100.768 91.3281   3
  -2 -15   2 119.347 114.359   2
   2 -15   2 240.242 118.898   1
   3   0   2 7717.87 312.470   1
  -3   0  -2 8557.30 323.247   1
  -3   0   2 7794.26 281.184   2
   3   0   2 8069.79 299.378   2
  -3   0  -2 8096.62 298.557   2
  -3   0   2 8009.55 258.820   1
   3   0  -2 7698.98 280.792   2
   3   1   2 19539.6 496.654   1
   3   1  -2 20803.7 491.788   2
  -3   1  -2 20035.6 498.994   1
  -3  -1   2 20122.0 448.802   1
   3  -1  -2 19612.4 412.701   2
  -3  -1  -2 20895.8 509.241   1
  -3  -1   2 19825.3 483.309   2
   3  -1   2 19147.2 494.420   1
   3  -1   2 20624.3 454.374   2
  -3  -1  -2 20349.9 498.129   2
  -3   1  -2 19547.4 444.461   2
  -3   1   2 20778.8 416.465   2
  -3   1   2 20096.6 362.099   1
  -3  -2  -2 15166.3 443.267   1
  -3   2  -2 15297.4 377.155   2
   3  -2   2 15340.0 381.753   2
  -3   2   2 15615.7 330.988   2
   3  -2   2 15392.5 449.061   1
   3  -2   2 15679.4 454.273   3
  -3   2  -2 15831.3 456.016   1
   3   2   2 15518.4 445.737   1
  -3  -2   2 15417.5 429.368   1
  -3  -2  -2 15563.9 456.932   2
  -3  -2   2 15349.5 453.449   2
  -3   2   2 14754.6 274.565   1
   3  -2  -2 14944.2 331.195   2
   3   2  -2 15854.2 461.005   2
  -3   3  -2 3791.44 187.834   2
  -3  -3  -2 4090.05 240.589   1
   3  -3  -2 3665.20 118.286   1
   3  -3  -2 3484.74 208.489   3
   3  -3   2 3378.79 228.027   3
   3  -3   2 3469.61 224.498   1
  -3   3   2 3377.80 115.005   1
  -3   3  -2 3703.79 232.972   1
   3  -3   2 3552.38 183.228   2
  -3   3   2 3571.82 143.095   2
  -3  -3   2 3342.45 217.167   1
   3   3  -2 3560.32 232.731   2
  -3  -3  -2 3594.52 234.650   2
   3  -3  -2 3597.93 148.554   2
  -3  -3   2 3753.58 238.962   2
   3   3   2 3470.86 220.057   1
  -3  -4  -2 2963.96 214.780   1
  -3   4  -2 2643.54 158.216   2
  -3   4   2 2625.09 111.606   2
   3  -4   2 2506.07 214.151   3
   3  -4   2 2492.40 198.466   1
   3   4   2 2609.96 201.155   1
  -3  -4  -2 2758.47 217.123   2
   3  -4   2 2629.92 155.391   2
   3  -4  -2 2732.73 199.794   3
  -3  -4   2 2825.31 223.693   2
   3  -4  -2 2709.74 117.793   2
   3  -4  -2 2672.58 93.8847   1
   3   4  -2 2801.22 220.964   2
   3   5   2 242.313 78.6493   1
  -3  -5  -2 351.457 90.7530   2
   3  -5  -2 295.214 82.2288   3
   3  -5   2 291.666 80.5323   1
  -3  -5  -2 344.459 85.3863   1
   3  -5  -2 256.901 34.6546   1
   3  -5  -2 275.892 37.1530   2
   3  -5   2 256.158 57.8620   2
  -3  -5   2 339.861 102.129   2
   3   5  -2 210.341 80.8363   2
  -3   5  -2 257.876 58.7970   2
   3  -6  -2 9220.42 210.968   1
   3  -6   2 9141.19 301.834   2
   3  -6   2 9214.10 412.322   1
  -3  -6  -2 9648.90 414.072   1
  -3  -6  -2 8991.88 425.318   2
  -3   6  -2 9546.66 458.375   3
   3   6   2 9127.91 392.586   1
   3  -6  -2 8863.86 187.847   2
  -3   6  -2 9027.99 302.205   2
  -3  -6   2 10248.9 458.690   2
  -3  -7  -2 21.6669 63.3974   1
   3  -7   2 53.7399 37.4996   2
   3  -7  -2 130.450 34.9772   1
   3  -7   2 75.2456 69.1191   1
   3  -7  -2 69.0560 20.9222   2
  -3   7  -2 68.5816 78.8508   3
  -3  -7   2 124.652 86.9560   2
  -3   7  -2 56.9265 39.7260   2
   3  -8  -2 2112.17 132.533   1
   3  -8   2 1934.30 212.616   1
  -3  -8   2 2124.55 235.411   2
  -3   8  -2 2010.93 247.473   3
   3  -8   2 2074.77 157.199   2
   3  -8  -2 1926.02 96.8170   2
   3  -8  -2 1936.59 93.4081   2
  -3   8  -2 1844.60 154.832   2
  -3   9   2 105.064 99.7338   3
   3  -9  -2 11.6006 17.0682   2
  -3   9  -2-39.5492 92.5376   3
   3  -9   2 52.0700 48.4951   2
   3  -9   2 47.8230 67.6457   1
  -3  -9   2 63.3158 65.8771   2
   3  -9  -2 10.5998 31.9023   1
   3  -9  -2 31.0865 21.2420   2
  -3   9  -2 38.8545 41.7982   2
  -3 -10   2 3.86658 81.5152   2
   3 -10   2 114.294 88.5328   1
   3 -10   2 69.2935 57.6572   2
   3 -10  -2 33.7842 21.9931   2
  -3  10  -2 159.979 108.563   3
  -3  10   2-14.0531 79.0431   3
   3 -10  -2-15.2376 40.3244   1
  -3 -11  -2 2049.52 280.813   2
  -3 -11   2 2383.17 277.816   2
   3 -11  -2 2472.29 185.187   1
   3 -11   2 2443.48 267.217   1
  -3  11  -2 2900.64 341.964   3
  -3  11   2 2576.37 305.335   3
   3 -11   2 2420.33 192.289   2
  -3 -12   2 124.439 84.9289   2
  -3 -12  -2 91.6628 81.4214   2
  -3  12   2 108.568 95.3709   3
   3 -12   2-20.2852 66.8573   1
  -3  12  -2 240.003 133.987   3
  -3 -13  -2-87.5318 100.014   2
  -3 -13   2 120.046 111.874   2
  -3  13   2 115.054 97.5796   3
  -3  13  -2 24.9760 78.5038   3
   3 -13   2 1.87281 82.9624   1
  -3  14   2 114.017 102.614   3
  -3 -14  -2-228.105 123.918   2
   3 -14   2-48.8454 74.2418   1
  -3 -14   2-147.442 111.774   2
   3 -15   2-59.1971 71.8596   1
  -3 -15  -2-216.449 123.071   2
   4   0   2 78966.4 1096.26   1
  -4   0  -2 76000.0 1082.35   1
  -4   0   2 76282.9 959.513   2
  -4   0  -2 75398.7 990.852   2
  -4   0   2 79035.0 924.969   1
   4   0  -2 77378.9 942.149   2
  -4  -1  -2 189.806 75.5302   2
  -4  -1   2 325.862 86.6925   2
  -4   1  -2 270.999 70.5803   2
   4  -1  -2 156.297 54.9592   1
  -4   1   2 207.269 59.1389   1
   4   1   2 170.504 75.7232   1
  -4   1   2 216.920 63.9795   2
  -4  -1   2 273.520 75.2443   1
  -4   1  -2 135.025 70.3535   1
  -4  -1  -2 233.925 71.8173   1
   4  -1   2 188.990 83.7865   1
   4  -1  -2 264.158 74.1422   2
   4   1  -2 161.756 65.8567   2
   4  -2   2 65980.4 855.496   2
  -4   2   2 65767.8 740.216   2
  -4   2   2 66414.8 730.433   1
  -4  -2  -2 65395.2 1032.42   1
   4  -2  -2 64432.1 721.780   1
   4  -2   2 66216.6 1016.01   1
  -4   2  -2 67291.1 1022.24   1
  -4  -2   2 64610.8 978.384   1
  -4  -2  -2 65755.3 1026.82   2
  -4   2  -2 64010.8 837.770   2
  -4  -2   2 64498.4 998.756   2
   4  -2  -2 65642.7 736.914   2
   4   2   2 66517.9 1027.89   1
   4   2  -2 66123.0 997.337   2
   4  -3   2 899.493 129.137   1
  -4  -3  -2 1021.77 143.919   2
   4  -3   2 831.316 102.038   2
  -4   3   2 787.901 78.8208   1
   4  -3  -2 830.360 82.0995   1
  -4  -3  -2 950.713 138.510   1
  -4   3  -2 982.368 135.489   1
  -4  -3   2 771.999 128.040   2
   4  -3   2 811.244 132.329   3
  -4   3  -2 961.355 102.898   2
  -4  -3   2 959.701 133.293   1
   4   3  -2 1035.07 141.459   2
  -4   3   2 802.404 75.0108   2
   4   3   2 847.598 130.418   1
   4  -3  -2 986.596 83.3300   2
   4  -4   2 26757.5 729.503   3
   4  -4  -2 26835.1 676.418   3
  -4  -4  -2 26377.7 699.855   1
   4  -4   2 26628.0 678.395   1
  -4   4   2 25605.0 340.152   2
  -4   4   2 24923.4 408.867   1
  -4   4  -2 26812.4 679.159   1
  -4  -4  -2 25859.7 702.863   2
   4  -4   2 27335.0 520.417   2
  -4   4  -2 26514.2 508.368   2
  -4  -4   2 26328.7 694.268   1
   4  -4  -2 26824.7 406.006   1
   4   4   2 27464.7 694.517   1
  -4  -4   2 26356.5 717.194   2
   4  -4  -2 28520.0 360.744   2
  -4  -5   2 1249.86 169.483   2
  -4  -5  -2 1340.51 171.982   1
   4  -5   2 1046.82 150.995   1
   4  -5  -2 1263.30 88.5496   1
   4  -5  -2 1605.06 181.771   3
  -4   5  -2 1232.68 111.935   2
   4  -5   2 1280.07 114.324   2
   4   5   2 1346.63 171.627   1
   4  -5   2 1221.24 171.185   3
   4  -6  -2 7467.12 219.244   1
   4  -6   2 7029.82 377.202   1
   4  -6  -2 7089.93 386.595   3
   4   6   2 8258.65 410.417   1
   4  -6   2 7282.42 263.492   2
  -4  -6   2 7493.35 422.261   2
  -4   6  -2 7037.03 258.091   2
   4  -7  -2 112.762 36.4621   1
   4  -7   2 64.1249 35.2607   2
  -4   7  -2 62.0543 33.2735   2
  -4  -7   2 88.7820 78.5501   2
   4  -7   2 100.325 66.6966   1
   4  -8  -2 9375.71 276.718   1
   4  -8   2 8728.83 452.458   1
   4  -8   2 8780.24 293.359   2
  -4  -8   2 9534.73 520.220   2
  -4   8  -2 9242.91 309.919   2
   4  -9   2 1488.28 124.517   2
   4  -9  -2 1210.52 109.144   1
  -4  -9   2 1233.41 202.483   2
   4  -9   2 1178.84 187.903   1
  -4   9  -2 1502.09 132.430   2
   4 -10  -2 7813.32 293.862   1
   4 -10   2 7147.69 270.656   2
   4 -10   2 6757.13 433.202   1
  -4 -10   2 7557.07 501.437   2
   4 -11   2 33.7146 69.6901   1
  -4 -11   2 86.7610 80.8452   2
  -4 -11  -2 17.6600 93.7637   2
  -4  11  -2-109.686 121.358   3
  -4 -12  -2 7666.64 539.716   2
   4 -12   2 8077.02 507.361   1
  -4  12  -2 8776.83 620.203   3
  -4 -12   2 7482.23 536.955   2
   4 -13   2 340.928 105.836   1
  -4 -13   2 424.210 162.909   2
  -4  13  -2 197.794 133.710   3
  -4 -13  -2 348.452 149.318   2
   4 -14   2 3746.82 367.539   1
  -4 -14   2 4393.28 455.471   2
  -4 -14  -2 4158.47 436.801   2
  -5   0   2 14697.3 452.024   1
   5   0   2 13981.6 510.025   1
  -5   0  -2 14916.0 527.864   1
  -5   0  -2 15218.6 483.502   2
  -5   0   2 15089.3 462.544   2
   5  -1  -2 590.883 93.5126   1
  -5   1  -2 661.433 103.075   2
   5   1   2 418.846 101.501   1
  -5  -1  -2 420.256 101.390   1
  -5   1   2 675.867 98.6649   2
  -5   1   2 359.967 70.6808   1
  -5  -1   2 561.558 106.231   2
  -5   1  -2 528.904 104.263   1
   5  -1   2 311.663 88.0582   1
  -5  -1  -2 668.733 113.467   2
  -5  -1   2 617.124 106.880   1
   5   2   2 46.5491 68.4943   1
  -5   2   2 66.0314 41.5888   1
  -5  -2  -2 63.8388 67.7869   2
  -5  -2   2-42.5155 57.8451   1
  -5  -2   2 118.637 81.1549   2
   5  -2  -2-30.9710 38.9026   1
  -5   2   2 60.5545 39.8316   2
  -5  -2  -2 54.7936 57.2413   1
   5  -2   2 15.2918 57.7811   1
  -5   2  -2-30.9611 45.5455   2
  -5   2  -2 19.6966 54.1962   1
   5  -3  -2 787.487 93.7927   1
  -5   3  -2 654.590 93.5029   2
  -5   3   2 800.625 96.9090   1
  -5  -3   2 955.571 146.974   2
   5   3   2 675.682 121.594   1
  -5  -3   2 830.965 134.371   1
   5  -3   2 652.133 131.237   3
   5  -3   2 696.944 120.885   1
  -5  -3  -2 709.614 131.575   2
  -5   3  -2 765.528 125.147   1
  -5   3   2 719.197 79.8547   2
   5  -4  -2 756.072 139.415   3
   5  -4   2 785.171 136.021   1
  -5   4  -2 754.974 94.4759   2
  -5   4  -2 790.698 132.535   1
  -5  -4   2 700.175 131.098   2
   5   4   2 713.681 139.753   1
  -5   4   2 613.259 58.1694   2
  -5   4   2 584.292 78.4201   1
   5  -4  -2 624.750 82.0658   1
   5  -5   2 520.858 81.9303   2
  -5   5  -2 637.380 83.4880   2
   5  -5   2 660.922 127.624   1
  -5  -5   2 836.605 147.702   2
  -5   5   2 497.082 71.9328   1
   5   5   2 537.244 122.586   1
   5  -5  -2 546.163 79.0091   1
   5  -6  -2 228.093 53.5663   1
   5  -6   2 265.477 97.8133   1
   5   6   2 233.082 96.4371   1
   5  -6   2 237.352 58.4000   2
  -5   6  -2 144.008 46.9411   2
  -5  -6   2 153.580 81.0898   2
   5  -7   2 31.8077 28.5082   2
   5  -7  -2 113.928 37.3181   1
   5  -7   2-63.0110 78.2610   1
   5   7   2-51.4062 67.8808   1
  -5   7  -2 10.7167 19.9734   2
  -5  -7   2 106.036 92.7233   2
   5  -8   2 90.9938 34.8149   2
  -5   8  -2 91.5940 28.6824   2
   5  -8  -2 123.202 46.4491   1
   5  -8   2 61.7042 60.9182   1
  -5  -8   2 143.126 85.1687   2
   5  -9  -2 960.538 101.881   1
   5  -9   2 800.745 154.989   1
  -5  -9   2 761.360 169.271   2
   5 -10   2 1054.89 184.684   1
  -5 -10   2 1333.01 239.412   2
   5 -11   2-103.964 100.541   1
  -5 -11   2-25.8459 93.0987   2
  -5 -11  -2-83.0907 115.065   2
  -5 -12   2 366.573 161.917   2
   5 -12   2 27.6324 78.9385   1
  -5 -12  -2 155.272 113.233   2
  -5 -13   2-89.7483 94.1134   2
   5 -13   2-6.48847 66.3867   1
   6   0   2 32108.2 837.631   1
  -6   0   2 31629.5 740.839   1
  -6   0  -2 31648.0 754.833   2
   6   0  -2 31544.2 731.209   1
  -6   0   2 32188.0 734.425   2
   6  -1   2 238.428 113.165   1
  -6  -1  -2 237.847 85.4332   2
   6   1   2 306.243 114.768   1
  -6  -1   2 202.406 94.7802   1
  -6   1  -2 167.624 67.2290   2
  -6   1   2 153.019 74.0787   1
   6  -1  -2 80.6936 63.6323   1
  -6   1   2 253.582 81.1333   2
  -6  -1   2 347.600 111.573   2
   6  -2   2 45171.8 996.205   1
   6  -2  -2 44295.2 800.135   1
  -6   2  -2 46170.3 833.668   2
  -6   2   2 45706.3 762.902   2
  -6   2   2 44865.8 806.648   1
  -6  -2   2 44690.5 957.243   2
   6   2   2 43931.3 1006.03   1
  -6   3  -2 1026.29 124.110   2
  -6   3   2 1046.32 127.614   1
   6  -3  -2 1031.93 125.466   1
   6   3   2 1098.02 175.552   1
   6  -3   2 1079.48 168.355   1
  -6  -3   2 956.749 170.158   2
  -6   3   2 1004.29 104.399   2
   6  -4   2 15732.0 598.630   1
  -6   4  -2 15888.0 449.258   2
  -6   4   2 15919.5 453.904   1
  -6   4   2 16024.9 322.934   2
  -6  -4   2 16392.3 634.366   2
   6   4   2 15368.2 618.650   1
   6  -4  -2 16216.8 452.680   1
  -6   5  -2 45.5239 42.3138   2
   6   5   2 70.2798 81.2684   1
  -6   5   2 4.51498 30.7732   1
  -6  -5   2 108.946 97.6713   2
   6  -5   2 7.92268 68.8389   1
   6  -5  -2-16.2324 45.8573   1
   6  -6   2 10258.6 506.064   1
   6   6   2 10099.8 527.842   1
  -6   6  -2 9565.49 298.357   2
  -6  -6   2 10764.5 560.819   2
   6  -6  -2 9592.44 333.990   1
   6   7   2 1239.25 195.517   1
  -6  -7   2 1030.61 188.973   2
  -6   7  -2 956.521 89.3445   2
   6  -7   2 1352.06 201.382   1
   6  -7  -2 1055.21 115.579   1
   6  -8   2 4506.33 353.604   1
  -6  -8   2 5214.63 426.520   2
   6  -8  -2 5202.51 240.801   1
  -6  -9   2 158.991 120.866   2
   6  -9   2 50.8663 69.1321   1
   6 -10   2 4013.08 356.764   1
  -6 -10   2 4568.18 434.154   2
  -6 -11  -2 143.061 121.308   2
   6 -11   2 305.404 121.576   1
  -6 -11   2 224.130 140.973   2
  -6 -12   2 2507.30 356.305   2
   6 -12   2 2640.73 310.159   1
  -6 -12  -2 3523.88 416.900   2
   7   0  -2 2906.57 245.801   1
  -7   0   2 2893.31 239.949   2
   7   0   2 2896.49 277.080   1
   7  -1  -2 172.312 78.6415   1
   7  -1   2 486.713 139.961   1
  -7   1   2 266.605 83.0957   2
  -7   1   2 259.586 84.7770   1
  -7  -1   2 385.051 108.426   2
  -7   1  -2 252.695 91.1725   2
   7   1   2 326.719 113.031   1
  -7   2   2 385.399 84.2636   2
  -7   2  -2 317.251 81.0729   2
  -7  -2   2 562.374 130.876   2
   7  -2   2 283.665 110.713   1
   7  -2  -2 252.804 80.9557   1
  -7   2   2 290.707 78.5698   1
   7   2   2 340.096 114.313   1
  -7   3   2 726.298 116.357   1
  -7   3  -2 715.969 108.232   2
   7  -3   2 677.473 150.264   1
   7   3   2 529.887 132.281   1
  -7   3   2 605.033 91.2349   2
  -7  -3   2 772.410 148.545   2
   7  -3  -2 692.975 113.869   1
  -7   4   2 186.144 55.5206   1
  -7   4  -2 198.502 67.2019   2
  -7   4   2 65.2228 34.4479   2
   7   4   2 41.1385 90.1602   1
   7  -4   2 61.5384 77.4278   1
  -7  -4   2 223.608 91.4077   2
   7  -4  -2 155.575 60.4778   1
   7  -5  -2 476.852 97.8012   1
  -7  -5   2 659.046 154.932   2
  -7   5  -2 396.363 76.6656   2
  -7   5   2 479.497 93.5599   1
   7  -5   2 237.403 108.754   1
   7   5   2 307.430 109.026   1
  -7  -6   2 130.426 91.2834   2
   7   6   2 53.1990 81.2942   1
   7  -6   2-44.4139 85.4483   1
   7  -6  -2 54.2116 45.0168   1
   7   7   2 105.623 72.2857   1
  -7  -7   2 159.947 120.052   2
   7  -7   2 37.9728 65.9614   1
   7  -7  -2-41.1932 54.3190   1
   7  -8   2 71.6012 77.5530   1
  -7  -8   2-55.8048 99.7843   2
  -7  -9   2 198.873 110.315   2
   7  -9   2 183.539 104.216   1
   7 -10   2 177.319 115.082   1
  -7 -10   2 195.323 115.161   2
  -7 -10  -2 332.314 156.684   2
   7 -11   2 346.551 131.927   1
   8   0  -2 6238.71 386.490   1
  -8   0   2 6533.19 384.906   2
   8   0   2 6008.58 430.856   1
   8  -1  -2 1055.05 168.716   1
   8  -1   2 1079.40 193.383   1
  -8   1   2 1101.98 158.161   2
  -8  -1   2 1049.72 168.339   2
   8   1   2 1345.79 227.849   1
   8  -2   2 11329.3 579.643   1
   8   2   2 11741.7 603.112   1
   8  -2  -2 11609.0 502.610   1
  -8   2   2 11631.8 455.417   2
  -8  -2   2 11484.0 555.715   2
   8   3   2 1997.69 265.337   1
   8  -3   2 1915.24 248.137   1
  -8   3  -2 1655.84 178.345   2
  -8   3   2 2147.89 182.063   2
   8  -3  -2 1751.29 196.450   1
  -8  -3   2 2447.89 272.727   2
   8  -4   2 7791.01 486.364   1
   8   4   2 7136.36 489.201   1
  -8   4   2 7660.05 274.110   2
   8  -4  -2 7174.41 374.820   1
  -8  -4   2 6986.37 474.864   2
   8  -5  -2 3311.54 251.652   1
   8   5   2 3000.17 332.488   1
   8  -5   2 3096.29 317.337   1
  -8  -5   2 3021.27 332.536   2
   8   6   2 8047.66 539.741   1
   8  -6  -2 8001.86 377.670   1
   8  -6   2 7984.29 507.124   1
  -8  -6   2 8110.83 554.965   2
   8   7   2 732.751 193.746   1
   8  -7   2 295.345 120.353   1
  -8  -7   2 474.038 157.652   2
   8  -8   2 3993.36 370.066   1
  -8  -8   2 4884.81 469.845   2
  -8  -9  -2 49.2823 96.5311   2
   8  -9   2 26.4897 95.9551   1
  -8  -9   2 323.223 165.878   2
   8 -10   2 3261.26 354.217   1
  -9   0   2 277.647 90.2657   2
   9   0   2 211.734 112.740   1
   9  -1   2 104.682 69.0660   1
   9  -1  -2 42.0324 71.4156   1
  -9  -1   2 206.787 96.8206   2
  -9   1   2 111.195 69.4126   2
   9  -2   2 616.985 170.762   1
  -9   2   2 312.096 94.0985   2
  -9  -2   2 482.787 138.613   2
   9  -2  -2 233.449 94.4324   1
   9   2   2 274.151 134.739   1
   9  -3   2 416.738 141.918   1
   9   3   2 385.823 131.249   1
  -9  -3   2 442.064 141.099   2
   9  -3  -2 362.508 112.132   1
   9  -4   2 34.4133 86.1576   1
  -9  -4   2-152.274 135.177   2
   9   4   2 52.7072 92.6054   1
   9  -4  -2-19.9280 78.5030   1
  -9  -5   2-10.7123 85.7317   2
   9   5   2 67.6273 80.3493   1
   9  -5   2 31.9945 96.8971   1
   9  -6   2 98.8978 113.194   1
  -9  -6   2 37.6770 84.0427   2
  -9  -7   2 187.574 124.097   2
   9  -7   2-87.3163 106.204   1
   9   7   2-38.3020 96.7695   1
  -9  -7  -2 119.579 109.798   2
   9  -8   2-246.479 122.839   1
  -9  -8   2-92.9938 105.006   2
   9  -9   2 160.599 95.9196   1
 -10   0   2 1652.03 225.709   2
  10   0   2 1776.11 275.358   1
  10   1   2 38.3303 90.5226   1
  10  -1  -2-15.3960 72.9130   1
 -10  -1   2 28.7669 78.2894   2
  10  -1   2 46.9826 86.5333   1
  10   2   2 2015.03 298.970   1
  10  -2  -2 2789.40 291.284   1
 -10  -2   2 2655.61 315.192   2
  10  -2   2 2760.10 339.833   1
  10  -3   2 279.616 152.236   1
  10  -3  -2 333.089 123.762   1
 -10  -3   2 331.382 154.783   2
  10   3   2 230.880 123.177   1
  10  -4   2 2422.58 319.153   1
  10   4   2 2991.99 367.917   1
 -10  -4   2 2565.27 351.465   2
 -10  -5   2 321.518 162.772   2
  10   5   2-54.0643 95.4692   1
  10  -5   2-33.5316 91.0060   1
 -10  -5  -2 101.353 124.560   2
  10  -6   2 3060.14 350.524   1
 -10  -6   2 3185.96 386.145   2
 -10  -6  -2 3379.29 404.267   2
  10  -7   2 64.1039 111.255   1
  10  -8   2 1970.93 291.580   1
 -11   0  -2 198.904 111.596   2
  11   0   2 444.256 181.077   1
 -11  -1  -2-163.652 156.012   2
  11  -1   2 40.0151 86.5293   1
 -11  -2  -2-29.6387 96.2200   2
  11  -2   2-89.4128 125.405   1
 -11  -3   2-28.1897 91.0955   2
 -11  -3  -2-203.197 129.000   2
  11  -3   2-97.5684 94.9675   1
 -11  -4   2-177.690 125.646   2
 -11  -4  -2 10.2544 125.804   2
  11  -4   2 243.138 137.004   1
  11  -5   2 38.6906 98.9333   1
   0   0   3 10.7119 43.6872   2
   0   0  -3-18.6661 47.6667   2
   0   0   3 5.05304 35.5627   1
   0  -1   3 12274.0 348.743   1
   0  -1  -3 11887.2 291.884   1
   0   1   3 12215.8 294.397   1
   0   1   3 11983.8 362.443   2
   0  -1  -3 11823.0 359.943   2
   0  -1   3 12154.6 373.245   2
   0   1  -3 12441.4 378.413   2
   0   2   3 32.3389 42.6233   2
   0  -2  -3 35.8446 40.7693   2
   0  -2   3 8.92693 51.2931   2
   0   2   3 10.5913 28.2021   1
   0  -2  -3 7.56351 24.0624   1
   0   3   3 7.65279 21.9573   3
   0  -3  -3 144.526 37.8588   1
   0   3   3 20.1858 30.9350   1
   0  -3  -3 33.9130 41.2468   2
   0   3   3 135.416 60.0360   2
   0  -3   3 49.6464 57.4524   2
   0   3  -3 78.9003 46.9177   2
   0   4   3 18.3322 26.8741   1
   0   4   3 43.5326 47.4062   2
   0   4  -3-8.14539 48.1273   2
   0  -4   3-2.37472 40.7105   2
   0  -4  -3-10.9347 39.5998   2
   0  -4  -3 29.6313 30.7839   1
   0  -5  -3-7.20472 28.5476   1
   0  -5  -3 12.3450 38.0413   2
   0  -5   3 108.536 66.6309   2
   0   5  -3 31.7250 50.0441   2
   0   6  -3 24.9864 47.1611   2
   0  -6  -3 4.25944 32.3201   1
   0  -6   3 45.2572 44.3881   2
   0  -6  -3 20.6331 43.6785   2
   0   7  -3 882.336 142.270   2
   0  -7  -3 693.534 111.300   2
   0  -7  -3 713.935 87.2117   1
   0  -7   3 728.052 123.643   2
   0  -8  -3 15.7052 41.1299   2
   0  -8  -3 21.1068 31.7891   1
   0  -8   3 91.8123 69.2750   2
   0   8  -3 47.5316 65.0344   2
   0  -9  -3 2745.37 227.092   2
   0  -9   3 2506.82 236.523   2
   0  -9  -3 2719.53 187.946   1
   0 -10  -3-50.8664 43.0372   1
   0 -10   3 74.0899 71.5284   2
   0  11   3 345.075 119.234   3
   0 -11   3 462.086 118.982   2
   0 -12  -3 67.1917 59.0350   2
   0 -12   3 24.3823 58.6328   2
   0  12   3-37.6563 79.6936   3
   0 -13   3 194.833 99.5209   2
   0  13  -3 548.999 179.747   3
   0  13   3 404.931 126.720   3
   0 -13  -3 233.234 88.8659   2
   0  14  -3-160.487 132.568   3
   0 -14   3-15.1822 88.9367   2
   0  14   3-90.6988 92.6106   3
   0  15   3 104.576 101.438   3
   1   0   3 2144.67 161.803   2
   1   0   3 2089.03 147.170   1
  -1   0  -3 2277.42 153.175   1
   1   0   3 2216.02 101.100   3
  -1   0  -3 2098.43 159.814   2
  -1   0   3 2147.33 158.857   2
   1   0  -3 2126.10 156.603   2
   1   1   3 871.603 113.696   2
  -1  -1  -3 889.106 110.264   2
   1  -1   3 979.427 110.416   1
   1  -1   3 948.782 111.664   2
   1   1   3 932.226 98.6157   1
  -1   1   3 856.164 99.8481   2
  -1   1  -3 859.672 105.985   2
  -1  -1   3 925.031 110.773   2
   1  -1  -3 761.807 96.6084   2
   1   1  -3 838.288 105.205   2
  -1   1   3 805.831 71.9553   1
  -1  -1  -3 732.860 88.0170   1
   1   2   3 117523. 1014.94   1
  -1   2   3 116152. 678.658   1
  -1  -2  -3 117331. 1015.49   1
  -1  -2   3 120245. 1233.57   2
   1  -2   3 116749. 1201.39   1
  -1   2  -3 118563. 1021.09   3
   1   2   3 117833. 1203.02   2
  -1  -2  -3 118853. 1206.05   2
  -1   2   3 119562. 1099.53   2
   1  -2   3 115646. 1174.03   2
   1  -2  -3 116185. 1090.12   2
  -1   2  -3 117262. 1187.19   2
   1   2  -3 115602. 1239.79   2
  -1  -3  -3 193.275 52.0406   1
   1   3  -3 101.381 57.7114   2
   1   3   3 224.670 71.7970   2
  -1   3   3 111.167 21.4082   1
  -1   3   3 126.749 52.6884   2
  -1  -3  -3 44.3634 46.8419   2
   1   3   3 193.688 57.9225   1
   1  -3  -3 94.7205 47.6819   2
   1  -3   3 91.4405 62.1875   1
   1  -3   3 206.952 74.0805   2
  -1   3  -3 99.0500 47.1997   2
  -1  -3   3 173.814 76.7643   2
  -1   3  -3 213.053 66.9917   3
  -1   4  -3 67442.4 960.921   2
   1  -4   3 72923.9 1068.90   1
  -1  -4  -3 72488.1 821.852   1
  -1   4  -3 71405.5 1009.45   3
   1  -4   3 71545.4 970.664   2
  -1   4   3 75037.9 781.369   3
   1   4   3 72161.7 1007.45   2
  -1   4   3 71876.1 869.042   2
  -1  -4  -3 72968.9 1014.97   2
   1  -4  -3 71033.1 880.878   2
  -1  -4   3 70543.4 1053.56   2
   1   4  -3 71649.1 1069.23   2
   1   4   3 72635.1 812.106   1
  -1   5  -3 386.760 92.3060   3
  -1  -5  -3 416.959 87.1410   2
   1   5  -3 184.019 68.4834   2
   1  -5  -3 352.855 70.1011   2
   1  -5  -3 334.985 33.3768   1
   1  -5   3 246.125 71.2637   2
  -1  -5   3 162.306 77.2549   2
  -1  -5  -3 454.973 75.3567   1
  -1   5  -3 314.056 81.0342   2
  -1   5   3 377.307 75.8880   3
   1   5   3 284.166 58.7971   1
  -1   5   3 354.619 69.1862   2
  -1  -6  -3 30492.9 589.164   1
   1  -6  -3 28499.0 355.286   1
  -1   6   3 28388.4 625.160   3
  -1  -6   3 30465.3 753.711   2
  -1   6  -3 29233.7 768.488   3
  -1  -6  -3 28176.2 692.171   2
   1  -6  -3 28176.3 595.610   2
   1  -6   3 31187.6 696.006   2
  -1   6  -3 28122.6 671.031   2
   1   6  -3 29287.4 744.251   2
   1  -7  -3 355.943 72.3910   2
   1   7  -3 581.718 121.634   2
   1  -7  -3 434.552 55.6090   1
  -1  -7  -3 269.462 66.6436   1
  -1   7  -3 413.498 113.080   3
   1  -7   3 428.471 100.521   2
  -1  -7   3 404.671 112.365   2
  -1   7   3 358.320 91.2796   3
  -1   7  -3 264.978 78.4492   2
  -1  -7  -3 343.260 88.3130   2
  -1  -8  -3 25138.2 598.685   1
   1  -8  -3 24468.2 608.373   2
   1  -8   3 25391.9 682.176   2
  -1  -8   3 24685.8 738.230   2
  -1   8  -3 25504.2 831.060   3
  -1   8   3 26477.5 719.725   3
  -1  -8  -3 24228.5 699.123   2
  -1   8  -3 25663.5 694.128   2
   1  -8  -3 25939.8 446.758   1
   1  -9  -3 234.916 54.9168   1
  -1  -9  -3 291.036 75.3399   1
   1  -9  -3 237.868 78.0134   2
  -1   9  -3 79.7899 86.6652   3
   1  -9   3 243.979 86.3214   2
  -1  -9   3 289.981 87.5812   2
  -1   9   3 184.285 87.0652   3
  -1   9  -3 172.704 58.6642   2
  -1  10  -3 21352.4 847.155   3
   1 -10  -3 20027.8 594.714   2
  -1  10   3 21293.0 750.300   3
   1 -10   3 19900.3 652.097   2
  -1 -10   3 20858.9 730.388   2
   1 -10  -3 19751.1 472.058   1
  -1 -10  -3 19525.9 588.120   1
   1 -11   3 550.984 124.302   2
  -1 -11   3 646.297 147.138   2
  -1  11   3 744.004 156.570   3
  -1  11  -3 958.848 203.957   3
  -1 -12   3 3250.91 317.291   2
  -1  12   3 3637.90 346.342   3
  -1  12  -3 4104.25 421.073   3
   1 -12   3 3760.53 309.604   2
   1 -12  -3 3654.76 284.744   2
   1 -13   3 74.1374 60.6000   2
  -1 -13  -3 36.0245 76.7388   2
  -1 -13   3 129.145 92.9149   2
  -1  13   3 8.87930 85.2248   3
  -1  13  -3 200.177 149.165   3
  -1 -14   3 2329.96 288.317   2
   1  14   3 1760.37 270.426   3
  -1  14   3 1374.57 256.188   3
   1  15   3 190.772 110.229   3
  -1  15   3-32.6093 85.2505   3
   2   0   3 68340.5 901.235   1
  -2   0  -3 68598.5 915.907   1
   2   0   3 68322.4 928.317   2
  -2   0  -3 68097.8 923.571   2
  -2   0   3 68619.5 883.026   2
   2   0  -3 67425.4 893.088   2
   2  -1   3 21725.4 454.862   3
   2   1   3 18992.4 469.384   1
   2  -1   3 19030.8 493.824   1
  -2  -1  -3 19703.0 479.177   1
  -2   1   3 18719.2 441.593   2
   2   1  -3 19269.5 504.104   2
  -2   1  -3 18651.2 488.752   1
   2  -1   3 18395.1 475.491   2
  -2  -1  -3 19419.1 509.348   2
   2   1   3 19572.1 506.033   2
  -2  -1   3 18472.4 485.342   2
   2  -1  -3 19267.3 455.184   2
  -2   1  -3 18588.7 477.001   2
   2   2   3 5529.42 258.688   1
   2  -2  -3 5863.46 243.231   2
  -2  -2  -3 5852.06 261.468   1
   2  -2   3 5644.20 282.356   1
  -2   2  -3 5448.47 277.248   1
   2  -2   3 5964.47 271.033   2
   2  -2   3 5303.26 248.959   3
  -2   2  -3 5020.83 249.376   2
   2   2   3 5796.07 284.130   2
  -2  -2  -3 5607.71 285.123   2
  -2   2   3 5488.77 232.427   2
  -2  -2   3 5618.77 286.414   2
   2   2  -3 5781.65 288.231   2
   2   3   3 9140.21 332.386   1
  -2  -3  -3 9323.62 333.890   1
  -2  -3  -3 9077.76 372.229   2
   2  -3   3 9620.75 386.548   1
   2  -3  -3 9279.92 281.803   3
   2   3   3 9125.29 369.870   2
   2  -3   3 9475.48 341.981   2
  -2   3   3 9420.18 301.016   2
  -2   3  -3 9620.42 347.062   2
   2  -3  -3 9102.25 297.270   2
  -2  -3   3 9302.40 385.773   2
   2   3  -3 9532.18 389.355   2
  -2  -4  -3-17.4586 41.4729   2
  -2   4   3-5.99224 36.5315   2
   2  -4   3-4.74860 40.7860   2
   2   4  -3 9.71966 40.0100   2
   2  -4  -3 8.23365 28.6845   2
  -2   4  -3 15.0222 42.2195   2
  -2  -4   3-12.5192 52.9170   2
  -2   4  -3 18.8827 50.9886   3
  -2  -4  -3 64.7137 49.7219   1
   2  -4   3-4.02658 53.0393   1
   2   4   3 35.8442 47.6903   1
  -2  -5  -3 1586.19 151.053   1
  -2   5  -3 1404.66 167.705   3
   2  -5   3 1458.20 169.841   1
  -2  -5   3 1617.18 181.438   2
  -2  -5  -3 1613.52 172.334   2
  -2   5   3 1442.35 119.187   2
   2  -5   3 1518.87 151.289   2
   2  -5  -3 1390.45 119.134   2
   2   5   3 1451.99 143.359   1
  -2   5  -3 1735.57 157.678   2
   2   5  -3 1744.29 188.458   2
  -2  -6  -3 4948.20 270.669   1
  -2   6  -3 4432.55 306.906   3
   2   6   3 4610.11 259.492   1
  -2  -6   3 4349.89 302.261   2
   2  -6   3 4960.30 323.511   1
  -2  -6  -3 4725.33 301.489   2
   2  -6  -3 4552.26 220.057   2
   2  -6   3 4757.47 266.446   2
  -2   6  -3 4899.98 270.984   2
   2   6  -3 4747.08 317.374   2
  -2   7   3-0.66168 47.9766   3
   2  -7   3 95.6453 63.0150   1
   2  -7  -3 36.4519 32.6046   2
  -2  -7   3 51.5561 70.3940   2
  -2  -7  -3 20.7042 48.2301   1
   2  -7   3 56.1479 45.6697   2
  -2   7  -3 123.415 90.3496   3
  -2   7  -3-11.7136 41.2607   2
   2  -8  -3 1990.96 93.4516   1
  -2  -8  -3 2019.81 191.178   1
  -2   8  -3 1749.24 229.300   3
   2  -8  -3 2014.86 97.4000   1
   2  -8   3 2275.38 240.460   1
  -2   8   3 1938.64 202.728   3
   2  -8  -3 1824.00 152.382   2
   2  -8   3 2143.11 196.593   2
  -2  -8   3 1732.66 214.284   2
  -2   8  -3 2014.87 189.604   2
   2  -9  -3 252.144 44.4369   1
  -2  -9  -3 260.307 81.2330   1
   2  -9  -3 271.549 73.3849   2
   2  -9  -3 219.374 42.9975   1
   2  -9   3 174.266 72.2985   2
  -2  -9   3 197.820 111.073   2
  -2   9   3 351.312 116.527   3
  -2   9  -3 78.5163 90.8793   3
  -2   9  -3 141.907 52.4982   2
   2  -9   3 130.123 92.8168   1
   2 -10   3 1100.70 154.410   2
   2 -10  -3 1348.78 106.688   1
  -2  10   3 1265.74 195.053   3
  -2 -10   3 939.661 170.498   2
  -2  10  -3 935.886 202.019   3
  -2  10  -3 1092.71 156.144   2
   2 -10   3 1191.23 196.842   1
  -2  11   3 4109.23 359.398   3
   2 -11   3 4035.23 363.072   1
  -2  11  -3 3900.86 399.350   3
   2 -11   3 3628.92 285.063   2
  -2 -11   3 3478.69 330.796   2
   2 -11  -3 3582.82 235.575   2
   2 -12   3 88.7637 67.7054   2
  -2 -12   3 392.103 138.628   2
   2 -12   3 131.539 102.391   1
  -2  12   3 203.446 103.403   3
   2 -13   3-14.0769 102.307   1
  -2 -13   3-64.4376 84.2408   2
  -2  13   3 65.1153 92.4374   3
  -2  13  -3 198.180 130.025   3
  -2 -13  -3 125.185 100.481   2
  -2 -14   3-25.1503 110.694   2
  -2  14   3 177.447 125.620   3
  -2 -14  -3 124.384 114.674   2
   2 -14   3 163.158 111.185   1
  -2 -15   3-41.7551 95.8425   2
  -2  15   3 351.100 150.969   3
   2 -15   3 120.489 132.256   1
   3   0   3 24826.9 600.917   1
  -3   0  -3 25610.5 611.706   1
  -3   0  -3 25405.2 601.106   2
   3   0   3 24887.0 596.675   2
  -3   0   3 25142.1 482.789   1
  -3   0   3 24891.0 561.864   2
   3   0  -3 25653.3 582.743   2
   3   1   3 4340.21 256.201   1
  -3  -1  -3 4179.67 248.940   1
  -3   1  -3 3931.95 248.947   1
   3  -1   3 4180.70 256.914   1
   3   1   3 3907.52 244.361   2
   3  -1   3 4211.58 242.357   2
  -3  -1  -3 3766.91 243.058   2
  -3   1  -3 4137.15 237.436   2
  -3   1   3 4122.12 220.271   2
  -3  -1   3 4248.21 249.296   2
  -3   1   3 4027.28 171.400   1
   3  -1  -3 4415.50 232.473   2
   3   1  -3 3986.43 245.122   2
   3   2   3 51064.9 862.330   1
  -3  -2  -3 50212.6 902.040   2
   3  -2   3 50715.7 850.109   3
  -3  -2  -3 53392.3 876.933   1
   3  -2   3 50750.5 902.718   1
  -3   2  -3 53882.6 923.231   1
   3   2   3 50916.9 903.458   2
   3  -2   3 51068.5 821.640   2
  -3   2  -3 50646.1 815.654   2
  -3   2   3 50965.3 723.507   2
  -3  -2   3 53087.6 907.716   2
   3  -2  -3 51467.8 753.935   2
   3   2  -3 52678.7 912.507   2
  -3   2   3 51398.0 496.819   1
   3   3   3 2818.22 214.383   1
   3  -3   3 3192.91 232.683   3
  -3  -3  -3 3030.74 217.401   1
  -3  -3  -3 2977.01 235.334   2
   3  -3   3 2886.20 224.484   1
  -3  -3   3 3185.06 241.574   2
  -3   3  -3 3062.55 230.755   1
   3  -3  -3 2970.68 190.270   3
   3  -3   3 2868.14 196.696   2
  -3   3   3 2624.76 158.878   2
  -3   3  -3 2773.16 191.729   2
   3  -3  -3 2921.37 172.202   2
   3   3  -3 3248.57 243.089   2
  -3  -4  -3 47234.4 862.884   1
   3  -4  -3 46976.2 791.874   3
   3  -4   3 46177.5 916.669   1
   3  -4  -3 47961.8 663.337   2
   3  -4   3 46463.5 922.413   3
  -3  -4   3 46903.7 946.348   2
  -3  -4  -3 45058.0 922.071   2
  -3   4   3 46500.2 638.262   2
   3  -4   3 45831.5 778.953   2
  -3   4  -3 46069.3 790.733   2
   3   4   3 46000.3 845.315   1
   3   4  -3 47244.0 952.321   2
   3  -5  -3 96.0616 49.9960   3
  -3  -5  -3 161.996 77.4215   2
   3  -5   3 76.6998 84.8472   1
  -3   5   3 35.4946 30.5547   2
   3  -5   3 151.152 63.3705   2
  -3  -5   3 91.7126 76.4035   2
   3  -5  -3 126.289 39.9678   2
  -3   5  -3 96.2062 49.6790   2
  -3  -5  -3 106.270 56.8255   1
   3   5   3 160.914 73.4337   1
  -3  -6  -3 10082.9 434.086   1
   3  -6   3 9796.44 459.367   1
   3  -6   3 10244.1 380.416   2
  -3   6  -3 10366.5 487.572   3
   3  -6  -3 10328.3 290.717   2
   3   6   3 9819.24 421.439   1
  -3   6  -3 11007.2 399.684   2
  -3  -6   3 10051.8 480.872   2
  -3  -7   3 324.751 115.755   2
   3   7   3 400.900 100.481   1
   3  -7   3 338.074 76.2568   2
  -3  -7  -3 292.214 91.0834   1
   3  -7  -3 409.396 63.9498   2
   3  -7   3 322.530 108.550   1
  -3   7  -3 298.248 72.5861   2
  -3   7  -3 254.592 101.435   3
   3  -8   3 15231.4 628.627   1
  -3   8  -3 14965.6 661.051   3
   3  -8   3 14537.3 479.335   2
   3  -8  -3 14651.4 351.119   2
  -3  -8   3 14509.5 629.518   2
  -3   8  -3 14405.4 479.305   2
  -3  -9   3 346.613 128.700   2
   3  -9   3 293.102 85.4810   2
   3  -9  -3 363.575 60.6845   2
  -3   9  -3 208.894 115.604   3
  -3   9  -3 246.539 70.1373   2
   3  -9   3 353.643 115.085   1
   3 -10   3 14537.4 664.164   1
  -3  10  -3 13274.8 695.102   3
  -3 -10   3 13145.7 645.929   2
   3 -10   3 14169.9 501.278   2
  -3  10  -3 13402.6 495.170   2
  -3 -11   3 850.705 188.300   2
   3 -11   3 435.588 101.800   2
  -3  11  -3 586.624 169.585   3
   3 -11   3 621.895 156.442   1
   3 -12   3 4880.24 418.208   1
  -3  12  -3 5556.14 500.911   3
  -3 -12   3 4943.10 425.477   2
  -3 -13   3-95.5582 91.7734   2
  -3  13  -3 177.365 126.090   3
   3 -13   3-25.5459 79.3556   1
  -3 -13  -3 104.719 106.470   2
  -3 -14   3 2475.93 336.403   2
   3 -14   3 2822.67 340.057   1
  -3 -14  -3 2658.93 340.707   2
  -3 -15  -3 13.5174 125.220   2
   4   0   3 1067.47 137.455   2
  -4   0  -3 765.561 116.332   2
   4   0  -3 953.347 122.843   2
  -4   0   3 961.124 110.935   1
  -4   0  -3 1048.74 141.480   1
   4   0   3 982.315 139.975   1
  -4   0   3 1160.33 137.357   2
   4  -1   3 43.5475 56.8273   2
  -4  -1  -3 32.6686 42.0393   2
  -4  -1  -3-10.2717 46.6303   1
  -4   1  -3-38.0269 52.5945   2
   4   1   3 76.7366 62.4084   1
  -4   1   3 80.4530 57.3322   2
  -4  -1   3 19.8664 48.2243   2
   4  -1  -3 77.7299 51.1979   2
  -4  -1   3 17.2324 38.7813   1
   4   1  -3 19.7698 41.8537   2
   4  -1   3 78.5454 49.3248   1
  -4   1  -3 75.4548 59.7121   1
  -4   1   3 53.7780 35.3107   1
  -4   2   3 5157.99 196.067   1
   4   2   3 4886.53 298.273   1
  -4  -2  -3 5267.75 312.595   2
   4  -2   3 4842.17 301.793   1
  -4  -2   3 5346.98 290.322   1
  -4   2  -3 5670.58 325.386   1
   4  -2   3 5341.43 307.047   3
   4  -2   3 5082.79 274.378   2
  -4  -2  -3 5049.38 305.101   1
  -4   2  -3 5012.95 268.561   2
  -4   2   3 5220.05 244.004   2
  -4  -2   3 5271.11 309.623   2
   4  -2  -3 5223.07 249.686   2
   4   2  -3 5400.53 315.366   2
   4   3  -3 9236.16 427.598   2
  -4  -3  -3 9341.15 416.941   1
  -4   3   3 9345.22 226.570   1
   4  -3   3 8681.27 410.723   1
  -4  -3   3 9089.37 402.873   1
   4  -3   3 8847.17 353.845   2
   4  -3   3 8362.16 402.320   3
  -4   3  -3 9454.15 427.410   1
  -4  -3  -3 9623.68 438.263   2
  -4   3  -3 8971.47 355.322   2
  -4   3   3 9358.83 301.918   2
  -4  -3   3 9205.17 423.416   2
   4  -3  -3 8651.32 299.779   2
   4   3   3 9317.56 413.324   1
   4  -4  -3 101.857 42.9376   2
   4  -4   3 35.4093 41.6404   2
  -4   4   3 17.6965 30.2893   2
  -4  -4   3 38.3842 64.3631   2
   4  -4   3 61.3676 56.3488   1
  -4   4  -3 185.393 62.3570   2
   4  -4   3 230.530 90.1852   3
  -4  -4   3 81.0583 63.3168   1
   4  -4  -3 153.589 60.5430   3
  -4  -4  -3 37.7782 49.5054   1
   4   4   3 172.353 85.5987   1
   4  -5  -3 3842.29 173.172   2
   4  -5   3 3788.97 287.989   1
  -4   5   3 3358.92 158.029   2
  -4   5  -3 3717.25 226.715   2
  -4  -5   3 4410.36 322.945   2
   4  -5  -3 3879.54 269.844   3
   4   5   3 3955.00 284.460   1
   4  -5   3 3333.24 216.622   2
   4  -6   3-34.6884 75.9300   1
   4  -6   3 66.4993 49.0666   2
   4  -6  -3 33.5612 22.4340   2
  -4   6  -3-7.12054 34.5856   2
  -4  -6   3 118.839 82.7624   2
   4  -6  -3 48.5997 56.0548   3
   4   6   3-22.8827 73.5065   1
   4  -7   3-27.2301 88.5885   1
   4  -7   3-0.52690 42.2379   2
  -4   7  -3-36.8203 42.7493   2
   4  -7  -3 2.27195 17.1386   2
  -4  -7   3 8.73763 80.0393   2
   4   7   3-30.4120 65.7887   1
   4  -8   3 241.411 67.3702   2
  -4  -8   3 299.567 112.798   2
   4  -8  -3 208.105 27.8359   2
  -4   8  -3 89.9266 54.4027   2
   4  -8   3 347.300 116.169   1
  -4  -9   3 1952.39 262.573   2
   4  -9   3 2167.33 181.731   2
  -4   9  -3 1772.37 167.633   2
   4  -9   3 1848.89 239.754   1
   4 -10   3 404.134 130.249   1
   4 -10   3 285.071 73.4133   2
  -4 -10   3 338.866 130.581   2
   4 -11   3 314.903 108.605   1
  -4 -11   3 503.220 163.367   2
   4 -12   3 150.423 115.559   1
  -4 -12   3 48.2389 90.2098   2
   4 -13   3 206.424 96.7766   1
  -4 -13   3 462.462 162.199   2
  -4 -13  -3 348.609 141.998   2
   4 -14   3 57.9991 93.9425   1
  -4 -14  -3 282.247 143.606   2
   5   0   3 53683.9 1063.79   1
  -5   0  -3 53887.8 1006.64   2
  -5   0   3 55403.7 958.521   2
  -5   0   3 54291.5 870.779   1
   5   0  -3 56487.9 955.182   2
  -5   1   3 915.393 114.338   1
  -5  -1  -3 849.429 137.868   2
  -5   1  -3 781.509 124.510   2
   5   1   3 1165.04 173.494   1
   5  -1   3 942.144 159.631   1
  -5  -1   3 1111.57 154.889   2
  -5   1   3 1204.51 141.810   2
   5  -1  -3 1142.81 135.173   2
   5   1  -3 940.886 135.952   2
  -5  -1   3 1093.01 140.734   1
   5   2   3 33775.4 838.457   1
  -5   2   3 33795.0 592.636   1
   5  -2   3 34900.8 860.787   1
  -5   2   3 34799.4 659.439   2
   5  -2   3 33900.9 750.731   2
  -5   2  -3 36610.2 769.700   2
  -5  -2   3 33580.7 784.036   1
  -5  -2   3 35884.9 848.883   2
   5  -2  -3 33875.8 658.710   2
   5   2  -3 35161.3 833.020   2
   5   3   3 178.085 116.933   1
   5  -3   3 128.138 74.6387   2
  -5   3  -3 100.963 58.4058   2
  -5  -3   3 152.785 102.112   2
  -5   3   3 77.9238 46.7272   2
  -5  -3   3 30.8285 65.4033   1
   5  -3  -3 32.9762 36.8418   2
  -5   3   3 88.7983 48.1512   1
   5  -3   3 46.2016 81.9134   1
   5  -4   3 38640.7 943.741   1
  -5   4   3 39010.7 513.650   1
   5  -4  -3 38680.9 888.586   3
   5  -4   3 39409.1 771.259   2
  -5   4   3 41077.3 598.166   2
  -5   4  -3 39075.9 759.314   2
  -5  -4   3 40343.2 972.329   2
   5   4   3 40341.1 951.050   1
   5  -4  -3 39256.8 586.274   2
  -5   5  -3 1244.70 140.033   2
   5  -5   3 1430.33 151.632   2
   5  -5   3 1788.16 219.083   1
  -5  -5   3 1597.36 216.451   2
  -5   5   3 1310.34 95.9377   2
   5  -5  -3 1715.89 196.443   3
   5   5   3 1506.52 196.267   1
   5  -5  -3 1427.84 100.233   2
   5  -6   3 8445.25 465.086   1
  -5  -6   3 8057.97 480.971   2
   5  -6   3 8619.81 351.785   2
  -5   6  -3 8407.56 344.996   2
   5   6   3 8295.43 457.970   1
   5  -7   3 10.2327 46.3614   2
   5  -7   3-76.1640 85.7512   1
  -5   7  -3 40.7932 34.8207   2
  -5  -7   3 20.4950 70.5294   2
   5   7   3 4.38225 62.2476   1
   5  -8   3 9851.67 535.523   1
   5  -8   3 10361.6 375.736   2
   5   8   3 10263.5 533.018   1
  -5  -8   3 10412.8 587.923   2
  -5   8  -3 9921.98 367.849   2
   5  -9   3 208.616 70.7499   2
   5  -9   3 79.7055 108.963   1
  -5  -9   3 113.024 99.9780   2
   5 -10   3 6022.38 448.105   1
  -5 -10   3 6948.80 517.410   2
  -5 -11   3 715.073 199.365   2
   5 -11   3 414.654 140.139   1
   5 -12   3 3467.22 366.630   1
  -5 -12   3 3115.97 376.065   2
   5 -13   3-205.865 113.373   1
  -5 -13  -3-93.9489 113.698   2
   5 -14   3 1497.70 263.197   1
  -6   0   3 7866.08 362.916   1
   6   0   3 7763.22 438.548   1
  -6   0   3 8475.08 401.988   2
  -6  -1   3 36.6869 56.9042   1
  -6   1  -3-6.93387 41.6287   2
   6   1   3-45.0374 65.4622   1
  -6   1   3-19.9457 49.5861   1
   6  -1   3 28.7137 68.5554   1
  -6   1   3-0.94914 49.4447   2
  -6  -1   3 56.2400 72.9011   2
   6   2   3 247.203 92.6860   1
  -6   2  -3 351.693 87.1615   2
  -6   2   3 241.307 72.0318   1
  -6   2   3 287.539 73.1820   2
   6  -2   3 179.048 76.5484   1
  -6  -2   3 179.647 86.0884   2
  -6   3  -3 1167.05 145.830   2
  -6  -3   3 1235.65 179.038   2
   6  -3   3 1141.61 178.383   1
  -6   3   3 1188.87 123.665   2
  -6   3   3 1044.01 115.818   1
   6   3   3 1108.54 180.767   1
  -6   4  -3 7.99716 36.8318   2
  -6   4   3 44.5402 31.7925   2
  -6   4   3 70.7744 38.3142   1
  -6  -4   3 42.2266 72.6964   2
   6  -4   3 28.7997 66.5730   1
   6   4   3 79.5971 83.5111   1
   6  -5   3 340.960 100.596   1
  -6   5   3 248.528 46.6799   2
  -6  -5   3 625.182 159.793   2
  -6   5  -3 445.436 88.5672   2
   6   5   3 343.868 114.040   1
  -6   5   3 334.478 58.1607   1
  -6  -6   3-14.0182 78.5427   2
  -6   6  -3-58.2868 38.4977   2
   6   6   3-52.5312 80.6942   1
   6  -6   3-1.56775 73.3108   1
   6  -7   3 76.2174 49.5264   2
   6  -7   3 160.744 103.722   1
  -6  -7   3 177.475 112.339   2
   6   7   3 168.949 95.7037   1
   6  -8   3 40.0987 77.7687   1
   6   8   3-57.1672 103.469   1
  -6  -8   3 59.3134 96.5660   2
   6  -9   3-15.3828 89.2444   1
  -6  -9   3-74.0638 108.616   2
   6 -10   3 469.434 152.281   1
  -6 -10   3 420.350 150.575   2
   6 -11   3-114.586 120.157   1
  -6 -11   3 89.7265 89.5948   2
   6 -12   3 131.715 90.8101   1
   6 -13   3-459.955 154.700   1
   7   0   3 14344.4 630.059   1
  -7   0   3 14748.8 562.432   2
   7   1   3 243.812 122.879   1
   7  -1   3 341.858 130.250   1
  -7   1   3 175.811 77.8449   1
  -7   1   3 169.969 68.5951   2
  -7  -1   3 243.526 100.467   2
   7  -2   3 6729.87 440.960   1
  -7   2   3 5805.81 314.345   1
  -7   2   3 7075.57 346.015   2
  -7  -2   3 6896.67 417.293   2
   7   2   3 6177.70 431.097   1
  -7   3  -3 100.105 58.4522   2
  -7   3   3 253.614 72.4182   2
   7  -3   3 240.443 121.223   1
  -7  -3   3 170.215 93.6918   2
   7   3   3 241.206 110.791   1
  -7   3   3 164.736 60.2299   1
   7  -4   3 11401.2 580.561   1
  -7   4   3 11690.6 403.797   1
  -7   4  -3 11133.4 452.435   2
  -7   4   3 11313.1 341.262   2
  -7  -4   3 10742.0 568.322   2
   7   4   3 11752.3 598.565   1
  -7  -5   3 1112.78 200.674   2
   7   5   3 1312.26 214.269   1
  -7   5  -3 1250.94 149.750   2
   7  -5   3 1216.64 208.743   1
  -7   5   3 895.214 81.1137   2
   7  -6   3 5553.08 420.161   1
   7   6   3 5639.08 436.444   1
  -7  -6   3 5052.76 424.569   2
   7   7   3 98.4798 73.0652   1
  -7  -7   3 55.9073 84.5934   2
   7  -7   3 124.221 88.7321   1
   7  -8   3 5339.84 433.006   1
   7   8   3 5303.92 445.979   1
  -7  -8   3 5350.35 470.482   2
   7  -9   3 60.3397 90.2532   1
  -7  -9   3 347.297 146.614   2
   7 -10   3 2841.69 334.461   1
  -7 -10   3 3471.27 401.619   2
   7 -11   3 163.669 110.885   1
   7 -12   3 2636.49 341.777   1
   8   0   3 2960.38 315.948   1
  -8   0   3 3317.15 284.513   2
   8   1   3 42.3456 109.731   1
   8  -1   3 112.645 102.999   1
  -8   1   3-13.6684 48.4396   2
  -8  -1   3-24.7255 75.5880   2
   8  -2   3 3056.44 325.408   1
  -8   2   3 3445.72 260.385   2
  -8  -2   3 3122.61 304.312   2
   8   2   3 3117.41 328.159   1
   8  -3   3 30.5875 100.307   1
  -8   3   3 86.1585 51.8065   2
  -8  -3   3 51.5817 77.7076   2
   8   3   3-55.1500 102.590   1
   8  -4   3-58.6835 80.9963   1
  -8  -4   3 180.867 115.092   2
   8   4   3-4.49707 98.4352   1
   8  -5   3 138.079 119.871   1
  -8  -5   3 51.2178 94.0656   2
   8   5   3 44.1032 104.190   1
   8  -6   3 1027.54 197.376   1
  -8  -6   3 1008.96 223.493   2
   8   6   3 1252.82 227.510   1
   8  -7   3 36.5780 86.3489   1
   8   7   3-39.7808 118.045   1
  -8  -7   3-84.1490 94.5096   2
   8   8   3 1386.76 256.762   1
  -8  -8   3 1176.73 242.627   2
   8  -8   3 1121.44 214.298   1
  -8  -9   3-100.303 93.9867   2
   8  -9   3 254.818 131.776   1
   8 -10   3 5.33217 93.9486   1
   8 -11   3-43.5369 81.4839   1
  -9   0   3 8149.30 473.137   2
   9   0   3 8154.78 551.282   1
   9  -1   3 109.095 101.660   1
  -9   1   3 119.921 80.2331   2
  -9  -1   3 97.1405 98.9917   2
   9   1   3 197.037 119.403   1
   9  -2   3 4832.38 426.794   1
  -9   2   3 5051.97 336.008   2
  -9  -2   3 4740.65 393.546   2
   9   2   3 5449.78 454.351   1
   9  -3   3 47.6198 105.807   1
  -9  -3   3 27.4755 98.5724   2
   9   3   3 240.546 144.397   1
   9  -4   3 5207.84 440.606   1
   9   4   3 6440.75 504.417   1
  -9  -4   3 6081.84 492.578   2
  -9  -5   3 490.229 171.724   2
   9  -5   3 377.529 152.562   1
   9   5   3 304.968 147.979   1
   9  -6   3 4810.06 442.142   1
   9   6   3 4319.89 431.873   1
  -9  -6   3 4911.57 459.596   2
  -9  -7   3 114.650 135.320   2
   9  -7   3 190.661 118.055   1
   9   7   3-219.741 123.424   1
   9  -8   3 3034.90 361.114   1
   9  -9   3 66.9038 135.852   1
 -10   0   3 588.385 136.608   2
  10   0   3 817.618 193.692   1
  10  -1   3 103.890 134.937   1
 -10  -1   3-108.852 91.9142   2
  10   1   3 1.56648 101.446   1
  10  -2   3 252.481 140.636   1
 -10  -2   3 184.439 147.666   2
  10   2   3 54.6826 107.151   1
  10  -3   3-62.9219 88.2711   1
 -10  -3   3-39.7885 144.435   2
  10   3   3-39.7102 101.665   1
  10  -4   3 168.945 126.582   1
 -10  -4   3-12.1759 99.3659   2
 -10  -5   3-108.328 104.339   2
  10  -5   3 39.9548 98.6417   1
  10  -6   3 81.0409 108.425   1
 -11  -2   3 1433.23 257.519   2
 -11  -3   3 32.9167 96.6040   2
 -11  -4   3 951.882 221.943   2
   0   0  -4 82006.4 1114.74   2
   0   0   4 82265.7 958.114   1
   0   0   4 82564.5 1108.52   2
   0   1   4-30.9603 41.2732   2
   0  -1   4-16.9715 55.8150   2
   0  -1  -4 3.32149 40.6341   2
   0   1  -4 26.9513 46.0950   2
   0  -1   4-12.3708 43.7091   1
   0   1   4-7.83359 37.4874   1
   0   1  -4 16.3003 29.3764   3
   0   2   4 73060.4 792.917   1
   0  -2   4 70759.9 1010.56   1
   0   2   4 75334.2 1050.28   2
   0  -2  -4 71228.2 793.137   1
   0  -2   4 74241.4 1078.72   2
   0  -2  -4 73377.7 1045.90   2
   0   2  -4 70558.5 1066.05   2
   0   3   4 56.2814 57.6235   2
   0  -3  -4 8.80555 25.3465   1
   0  -3  -4-55.2433 60.0524   2
   0  -3   4 0.30945 55.2757   2
   0   3   4 5.84641 30.9207   1
   0   3  -4 34.6161 48.3300   2
   0   4   4 107068. 761.926   3
   0  -4  -4 108007. 916.415   1
   0   4   4 108269. 1293.33   2
   0  -4  -4 108834. 1317.23   2
   0  -4   4 107314. 1389.22   2
   0   4  -4 112140. 1426.90   2
   0   4   4 108575. 914.087   1
   0   5   4 13.7876 55.2009   2
   0  -5  -4 12.6373 54.1663   2
   0  -5   4-4.99426 67.9012   2
   0  -5  -4 15.5319 23.9353   1
   0   5  -4 106.563 73.1692   2
   0   5   4 33.8903 36.5885   3
   0   5   4 22.6016 29.8043   1
   0   6   4 4602.68 237.247   3
   0  -6  -4 4824.18 199.203   1
   0  -6  -4 4406.17 281.586   2
   0  -6   4 4525.94 307.186   2
   0   6  -4 4700.31 318.072   2
   0  -7  -4 9.51461 30.0029   1
   0  -7  -4 9.00309 55.8326   2
   0   7   4 30.4504 46.1431   3
   0  -8  -4 17871.9 431.926   1
   0   8   4 15749.0 535.600   3
   0  -8  -4 14607.9 544.545   2
   0  -8   4 15377.8 601.797   2
   0  -9   4 36.9887 78.1442   2
   0  -9  -4-106.879 46.0362   1
   0   9   4-29.3025 53.0331   3
   0  10   4 11993.7 541.482   3
   0 -10   4 11256.9 549.977   2
   0 -11   4-24.9594 85.5732   2
   0  11   4-270.034 100.791   3
   0  12   4 2746.12 293.187   3
   0  12  -4 3408.84 393.367   3
   0 -12   4 2834.44 297.998   2
   0 -13   4-69.1365 74.6150   2
   0  13  -4-59.0844 113.370   3
   0  13   4 119.290 80.8320   3
   0 -14   4 1471.65 238.552   2
   0  14   4 1628.79 258.374   3
   1   0   4 6495.84 287.593   1
  -1   0   4 6300.70 253.132   1
   1   0  -4 6649.62 315.210   2
  -1   0  -4 6771.16 295.053   1
   1   0   4 6778.93 325.370   2
  -1   0   4 6451.12 311.290   2
  -1   0  -4 6671.28 326.136   2
   1  -1   4 565.101 98.2754   1
   1   1   4 472.127 86.0431   1
   1   1   4 424.812 90.0495   2
   1  -1   4 470.814 97.9701   2
  -1  -1  -4 749.561 115.374   2
  -1  -1   4 826.047 120.768   2
  -1   1  -4 431.705 88.8757   2
   1  -1  -4 723.884 108.044   2
  -1  -1  -4 472.295 81.0270   1
  -1   1   4 1125.03 104.675   1
   1   1  -4 674.528 111.129   2
  -1   1   4 1040.21 138.520   2
   1   2   4 2865.72 180.384   1
  -1   2   4 2799.72 136.265   1
  -1   2  -4 2642.23 210.292   2
  -1  -2  -4 2810.73 182.371   1
  -1   2  -4 2492.78 160.486   3
   1  -2   4 3059.28 220.558   1
   1   2   4 2920.57 220.643   2
  -1   2   4 2688.91 200.005   2
  -1  -2  -4 2892.89 219.707   2
   1  -2   4 2644.81 205.646   2
   1  -2  -4 2966.56 209.283   2
  -1  -2   4 2529.69 211.989   2
   1   2  -4 3082.93 232.059   2
   1   3   4 49.4627 51.1757   2
  -1   3   4 40.6041 47.6170   2
  -1  -3  -4 156.480 70.2761   2
   1  -3   4 42.2327 56.7091   2
   1  -3  -4 94.4088 53.6346   2
   1   3   4 165.266 52.3857   1
  -1  -3   4 42.1693 54.2352   2
   1  -3   4 133.694 61.5613   1
  -1   3  -4-12.1651 37.1218   2
   1   3  -4 168.801 69.4548   2
  -1   3   4 88.7482 30.1839   1
  -1   3  -4 25.1904 43.9693   3
  -1  -3  -4 143.814 47.6554   1
  -1   4   4 1816.18 166.314   2
  -1  -4  -4 1958.95 148.709   1
   1  -4   4 1913.48 197.281   1
  -1   4  -4 1302.54 148.774   3
   1   4   4 1538.64 167.641   2
  -1  -4  -4 1729.13 179.324   2
   1  -4  -4 1712.20 159.690   2
   1  -4   4 1510.47 165.698   2
  -1  -4   4 1525.66 172.276   2
  -1   4  -4 1642.82 176.100   2
   1   4  -4 1809.28 189.707   2
  -1   4   4 1674.67 79.8684   1
   1   4   4 1602.36 134.502   1
  -1   5  -4 1969.96 196.606   3
  -1  -5  -4 2075.12 156.056   1
   1  -5   4 1980.33 210.349   1
   1   5   4 2360.70 208.797   2
  -1   5   4 1746.05 161.924   2
  -1  -5  -4 2144.64 203.584   2
   1  -5  -4 2385.31 192.024   2
   1  -5   4 2164.02 200.950   2
  -1  -5   4 2243.27 221.824   2
  -1   5  -4 1957.96 194.542   2
   1   5   4 1886.44 148.180   1
   1   5  -4 1724.31 193.470   2
  -1  -6  -4 4748.66 238.649   1
   1  -6   4 4184.04 315.926   1
   1  -6  -4 4648.77 125.056   1
  -1   6  -4 4654.66 329.367   3
  -1   6   4 4949.18 246.788   3
   1   6   4 4633.32 235.672   1
  -1   6   4 4628.00 268.740   2
  -1  -6  -4 4795.25 310.924   2
   1  -6  -4 4836.72 278.576   2
   1  -6   4 4523.68 298.695   2
  -1  -6   4 4841.70 330.640   2
  -1   6  -4 4874.02 312.445   2
   1  -7  -4 812.281 122.360   2
   1  -7  -4 774.425 57.3664   1
   1  -7   4 710.086 129.625   2
  -1  -7   4 656.336 137.145   2
  -1   7   4 779.990 117.010   3
  -1  -7  -4 823.309 109.719   1
  -1   7  -4 753.313 144.249   3
  -1  -8  -4 2497.84 189.588   1
   1  -8  -4 2440.38 113.706   1
  -1   8   4 2509.04 220.181   3
  -1   8  -4 2189.83 255.771   3
   1  -8  -4 2664.42 223.530   2
  -1  -8   4 2145.84 237.782   2
   1  -8   4 2173.87 222.102   2
   1  -9  -4 45.1063 46.6248   2
   1  -9   4 15.4822 67.8428   2
  -1  -9   4 54.6935 73.9035   2
  -1  -9  -4 13.7243 40.3348   1
  -1   9  -4 24.8978 78.2489   3
  -1   9   4-45.2789 59.6794   3
   1  -9  -4-44.2268 24.1036   1
  -1  10  -4 159.725 101.255   3
   1 -10   4 70.1573 85.6810   2
  -1 -10   4 84.6372 70.7012   2
  -1  10   4 112.216 75.4042   3
   1 -11   4 240.038 99.2975   2
  -1 -11   4-34.8816 77.2340   2
  -1  11   4 45.5510 60.4272   3
  -1  11  -4 152.903 118.236   3
   1 -12   4 189.508 115.539   1
   1 -12   4 203.968 96.3757   2
  -1 -12   4 121.690 92.5096   2
  -1  12  -4 148.983 115.631   3
  -1  12   4 167.925 96.0654   3
  -1  13  -4 123.494 115.612   3
   1 -13   4 68.7633 71.4458   2
  -1 -13   4 128.223 84.5903   2
   1 -13   4-7.06023 89.8241   1
   1  13   4-1.89577 58.9325   3
  -1  13   4-8.04781 66.6430   3
  -1 -14   4 608.125 188.251   2
   1 -14   4 491.795 168.811   1
   1  14   4 245.776 116.394   3
  -1  14   4 179.476 86.0920   3
   2   0   4 39868.6 768.974   1
  -2   0  -4 39891.7 775.547   1
   2   0   4 40135.3 572.744   3
   2   0   4 41092.2 820.318   2
  -2   0  -4 43486.4 840.993   2
  -2   0   4 39733.4 774.706   2
   2   0  -4 39970.9 791.252   2
   2   1   4 293.626 89.0967   2
   2  -1   4 192.873 76.9238   2
  -2  -1  -4 409.131 84.5281   1
  -2  -1  -4 310.750 89.1884   2
  -2   1   4 262.702 74.0833   2
  -2   1  -4 284.774 75.1554   2
  -2  -1   4 178.886 75.9492   2
   2  -1   4 283.339 81.6672   1
   2  -1  -4 310.792 80.6777   2
  -2   1  -4 300.466 73.9686   1
   2   1  -4 448.754 101.856   2
   2  -1   4 308.161 61.2573   3
   2   1   4 314.295 84.8526   1
   2   2   4 48183.6 820.427   1
  -2  -2  -4 49384.8 826.854   1
   2  -2   4 49846.1 912.096   1
  -2   2   4 48962.2 522.798   1
   2  -2  -4 49859.4 560.428   3
   2   2   4 48280.7 913.755   2
   2  -2   4 48376.7 882.948   2
  -2   2   4 49664.4 830.113   2
  -2  -2  -4 49277.2 927.147   2
  -2   2  -4 50514.0 901.497   2
  -2  -2   4 49085.3 925.781   2
   2  -2  -4 49737.5 838.172   2
   2   2  -4 50009.6 944.016   2
   2   3   4 5410.64 276.161   1
  -2   3   4 5353.86 123.150   1
  -2  -3  -4 5496.16 278.082   1
   2  -3   4 5473.22 321.623   1
   2  -3  -4 5754.05 205.220   3
   2   3   4 5931.51 330.336   2
  -2  -3  -4 5432.82 319.848   2
  -2   3   4 5661.80 279.220   2
   2  -3   4 5483.27 301.492   2
  -2   3  -4 5228.42 298.111   2
   2  -3  -4 5773.95 284.196   2
  -2  -3   4 5660.22 328.236   2
   2   3  -4 5064.68 314.345   2
  -2  -4  -4 54821.6 883.428   1
   2  -4  -4 54339.8 862.924   2
   2  -4   4 55872.2 1051.75   1
  -2   4  -4 54698.5 958.923   3
   2   4   4 54900.8 1015.06   2
  -2   4   4 55575.1 862.820   2
  -2  -4  -4 55308.0 1037.28   2
   2  -4   4 53132.1 947.918   2
  -2   4  -4 59208.9 1006.86   2
  -2  -4   4 54576.6 1056.17   2
   2   4  -4 54844.6 1069.95   2
   2   4   4 55618.3 889.602   1
   2  -5  -4 11489.1 397.095   2
  -2  -5  -4 11501.8 410.992   1
   2  -5   4 11086.5 490.142   1
  -2   5  -4 10512.9 457.635   3
  -2   5   4 11123.1 385.203   2
   2  -5   4 10481.9 430.015   2
  -2  -5   4 11019.7 489.391   2
  -2   5  -4 11457.0 457.270   2
   2   5   4 11534.9 411.586   1
  -2  -6  -4 2727.83 206.969   1
   2  -6   4 2890.28 266.997   1
  -2   6  -4 2870.90 259.639   3
  -2   6   4 2887.80 201.928   2
   2  -6   4 2587.59 223.483   2
   2  -6  -4 2758.73 199.416   2
  -2  -6   4 2432.66 242.399   2
   2   6   4 3085.58 219.329   1
  -2   6  -4 2660.49 227.487   2
   2  -7  -4 16.1746 36.7954   2
   2  -7   4 155.769 80.9492   2
  -2  -7   4 271.679 93.6119   2
   2  -7   4 6.76720 62.5728   1
  -2   7  -4 98.5799 71.0980   2
   2   7   4 4.49627 57.5598   1
  -2   7  -4 72.6588 73.2074   3
  -2  -7  -4-1.25566 55.0365   1
  -2  -8  -4 11915.5 461.392   1
   2  -8   4 12958.7 606.591   1
  -2   8  -4 12931.2 617.526   3
   2  -8  -4 12533.9 441.592   2
   2  -8   4 11904.7 499.121   2
  -2  -8   4 10951.3 546.198   2
   2  -9   4 149.162 97.1428   1
   2  -9  -4 225.327 72.8965   2
   2  -9   4 196.030 81.7435   2
  -2  -9  -4 226.171 68.7989   1
  -2  -9   4 137.248 96.6254   2
  -2   9  -4 29.2574 95.9718   3
   2 -10   4 13998.6 683.082   1
  -2  10  -4 13341.2 706.399   3
  -2  10   4 13444.7 597.381   3
   2 -10   4 12852.7 548.958   2
  -2 -10   4 13476.9 649.075   2
   2 -11   4 105.617 62.4240   2
  -2 -11   4 276.603 119.393   2
  -2  11  -4 51.0207 106.365   3
  -2  11   4 164.223 80.7326   3
   2 -11   4 276.680 136.090   1
  -2  12  -4 4676.30 467.261   3
   2 -12   4 5467.08 467.971   1
  -2  12   4 5278.63 425.250   3
   2 -12   4 5145.15 369.747   2
  -2 -12   4 5310.65 439.893   2
  -2 -13   4-29.2336 87.7161   2
  -2  13  -4 107.335 109.166   3
  -2  13   4-50.1796 84.5623   3
   2 -13   4 76.7690 127.700   1
  -2  14   4 2953.67 356.866   3
  -2 -14  -4 2992.32 349.252   2
  -2 -14   4 3386.27 381.005   2
   3   0   4 43.8777 67.5682   2
  -3   0  -4 230.374 77.6278   2
  -3   0  -4 69.8775 57.6370   1
  -3   0   4 28.1764 46.7876   2
   3   0  -4 17.9178 49.0301   2
   3   0   4-1.60966 45.8435   1
   3   1   4 326.941 89.5432   2
   3  -1   4 543.339 111.119   1
   3  -1   4 593.650 112.521   2
  -3  -1  -4 394.706 96.8447   2
  -3   1  -4 482.150 96.9762   2
   3   1  -4 562.990 109.552   2
  -3   1   4 400.441 82.7459   2
  -3  -1   4 512.719 109.448   2
   3  -1  -4 614.155 108.762   2
   3  -1   4 526.564 90.1710   3
   3   1   4 326.338 81.3822   1
  -3  -1  -4 446.317 93.4751   1
  -3   1  -4 461.606 105.440   1
   3   2   4 326.393 88.8053   2
  -3   2  -4 399.861 97.0222   1
   3  -2   4 306.643 92.3347   2
  -3  -2  -4 401.635 96.5383   2
   3   2  -4 444.797 99.3749   2
  -3   2   4 405.960 82.1529   2
  -3   2  -4 338.595 82.3621   2
   3  -2   4 304.569 90.3278   1
   3   2   4 171.937 65.2801   1
  -3  -2   4 462.313 108.152   2
  -3  -2  -4 458.355 98.6996   1
   3  -2  -4 370.643 81.5011   2
   3  -2   4 407.841 86.6130   3
  -3   2   4 359.949 48.8246   1
   3   3   4 19.8811 65.6199   2
  -3   3   4 21.9151 10.9277   1
   3  -3   4 19.9049 48.5832   2
  -3  -3  -4 74.7875 61.1189   1
  -3   3   4 2.48756 43.9759   2
   3   3   4 54.7601 61.2025   1
  -3   3  -4 103.227 61.0578   2
   3   3  -4 53.2552 66.9140   2
  -3  -3   4 89.8060 74.1693   2
   3  -3  -4-0.26064 39.1309   2
   3  -3   4 4.47276 70.9848   1
   3  -3   4 131.535 70.2696   3
   3  -3  -4 83.6948 37.3796   3
   3   4   4 156.859 77.8934   1
  -3   4   4 226.963 78.5097   2
   3  -4   4 13.4361 47.7583   2
  -3   4  -4 182.262 68.8244   2
   3  -4  -4 166.135 46.7975   2
  -3  -4   4 317.682 97.3533   2
   3  -4  -4 161.759 56.5297   3
   3  -4   4 81.3406 72.3728   1
  -3  -4  -4 265.280 78.5406   1
  -3  -5  -4 3698.58 262.868   1
  -3  -5   4 3476.21 293.842   2
   3  -5   4 3716.07 298.923   1
  -3   5   4 3751.03 219.397   2
   3  -5   4 3210.27 243.229   2
   3  -5  -4 3341.98 209.046   2
  -3   5  -4 3521.32 254.045   2
   3   5   4 3668.26 260.667   1
  -3   6   4 93.7323 46.6812   2
   3  -6   4 6.80061 52.2533   2
   3  -6   4 108.669 80.3396   1
   3  -6  -4 57.2975 46.7487   2
  -3   6  -4 184.552 61.4197   2
  -3  -6   4 229.114 84.5999   2
  -3  -6  -4 79.1402 57.2553   1
   3   6   4 83.6304 70.9729   1
   3  -7   4-66.8112 66.6463   2
   3  -7  -4 49.2440 37.7226   2
   3  -7   4 20.2159 74.1046   1
  -3  -7   4 28.9370 54.6511   2
  -3   7  -4 38.0933 49.1020   2
  -3   7  -4-86.7785 95.7419   3
   3   7   4-57.7423 67.8289   1
   3  -8   4 69.2753 63.0498   2
   3  -8  -4-0.95360 27.6961   2
  -3  -8   4 44.3643 74.3859   2
   3  -8   4 1.10129 78.2575   1
   3   8   4 1.93609 64.2197   1
  -3   8  -4 217.042 85.5225   2
  -3   8  -4 115.871 97.2748   3
   3  -9   4 157.656 76.9407   2
  -3  -9   4 102.847 76.4018   2
   3  -9   4 2.97799 105.964   1
  -3   9  -4 315.595 133.066   3
   3 -10   4 9.53510 52.3248   2
  -3 -10   4 8.27760 68.4798   2
  -3  10  -4 58.9952 101.214   3
   3 -10   4 27.6523 71.2018   1
   3 -11   4-50.0397 67.1277   2
  -3 -11   4-143.802 104.569   2
  -3  11  -4-21.5247 84.5760   3
   3 -11   4-65.7975 100.945   1
  -3 -12   4-112.632 100.011   2
  -3  12  -4 34.2683 105.794   3
   3 -12   4 11.1642 96.7109   1
  -3 -13   4-136.710 121.306   2
   3 -13   4 281.745 136.556   1
  -3  13  -4 32.7619 135.844   3
  -3 -14  -4 193.453 115.484   2
   4   0   4 7392.90 389.767   1
  -4   0  -4 7410.65 379.966   2
  -4   0   4 7320.58 356.312   2
   4   0   4 6807.74 364.195   2
  -4   0   4 6952.02 299.098   1
   4   0  -4 7297.63 366.503   2
   4   1   4 1359.52 175.647   2
   4  -1   4 926.451 147.419   2
   4  -1  -4 1156.18 145.586   2
  -4   1  -4 1326.82 161.535   2
  -4   1   4 932.581 126.755   2
  -4  -1   4 1044.23 144.259   2
   4   1   4 1049.83 157.102   1
  -4  -1   4 1099.72 131.071   1
   4  -1   4 1077.81 140.072   3
   4   1  -4 1113.38 156.407   2
   4  -1   4 1199.84 169.540   1
  -4   1   4 998.609 105.143   1
   4   2   4 29820.2 779.129   1
   4  -2   4 31183.4 816.869   1
   4  -2   4 30367.4 743.316   3
   4  -2   4 30883.5 749.635   2
  -4   2  -4 30281.1 742.701   2
  -4   2   4 30462.6 664.499   2
  -4  -2   4 30848.2 716.893   1
  -4  -2   4 30908.0 800.115   2
   4  -2  -4 29685.1 679.319   2
   4   2  -4 31990.6 822.323   2
  -4   2   4 31168.7 484.486   1
   4  -3   4 223.337 88.1043   2
   4   3   4 262.366 101.421   1
   4  -3   4 229.659 94.8348   1
  -4   3   4 204.487 67.8727   2
  -4   3  -4 282.795 82.5347   2
  -4   3   4 205.478 33.7539   1
  -4  -3   4 373.562 114.342   2
   4  -3  -4 240.750 76.0201   2
   4  -3   4 336.161 95.0786   3
   4  -4   4 36132.3 915.417   1
   4  -4   4 35838.9 895.551   3
   4  -4   4 35397.1 792.954   2
   4  -4  -4 35321.5 753.923   3
  -4   4   4 36579.5 673.839   2
  -4   4  -4 36456.5 810.746   2
  -4  -4   4 35064.4 918.817   2
   4  -4  -4 34914.3 686.187   2
   4   4   4 35347.8 853.883   1
  -4   5  -4 2508.61 219.671   2
   4  -5   4 2497.18 256.431   1
   4  -5  -4 2538.31 215.029   3
  -4   5   4 2324.48 168.676   2
   4  -5   4 2480.68 215.171   2
  -4  -5   4 2602.51 270.005   2
   4  -5  -4 2370.84 177.294   2
   4   5   4 2362.02 234.154   1
   4  -6   4 21012.5 746.304   1
  -4   6   4 20994.7 476.844   2
   4  -6   4 20543.9 611.356   2
  -4   6  -4 21436.9 632.929   2
   4  -6  -4 20231.9 482.611   2
  -4  -6   4 20061.7 752.442   2
   4   6   4 21210.4 690.194   1
   4  -7   4 922.897 138.595   2
   4  -7  -4 905.662 101.660   2
  -4   7  -4 916.029 136.577   2
  -4  -7   4 919.333 177.685   2
   4   7   4 821.655 153.522   1
   4  -7   4 942.109 184.155   1
   4  -8   4 15739.7 695.893   1
   4  -8   4 15740.0 546.143   2
   4   8   4 15128.6 615.881   1
  -4  -8   4 16296.4 730.772   2
  -4   8  -4 15978.6 554.216   2
   4  -9   4 15.1317 51.3783   2
  -4  -9   4 86.4865 80.1722   2
   4  -9   4-71.4814 83.3562   1
   4 -10   4 9621.22 588.990   1
   4 -10   4 9573.24 439.735   2
  -4 -10   4 10151.2 617.630   2
   4 -11   4-58.4087 98.3556   1
  -4 -11   4 32.8061 74.1879   2
   4 -12   4 1634.12 267.078   1
  -4 -12   4 2028.28 299.134   2
   4 -13   4-175.768 121.139   1
   5   0   4 308.827 113.344   2
  -5   0   4 224.858 84.3685   2
   5   0   4 174.135 82.9191   1
   5   0  -4 173.557 74.6005   2
  -5   0   4 44.8978 47.3521   1
   5  -1   4 1113.19 156.834   2
   5   1   4 681.994 137.866   1
  -5   1   4 1163.79 147.295   2
  -5  -1   4 800.087 138.999   2
   5  -1   4 875.874 159.723   1
   5  -1  -4 1050.33 145.116   2
  -5  -1   4 860.327 129.142   1
  -5   1   4 723.344 98.5578   1
   5  -2   4 17.5605 58.6250   2
  -5   2   4 35.5115 32.4989   1
   5   2   4 62.0753 68.9875   1
  -5   2  -4 14.5321 41.2605   2
  -5   2   4-38.6002 50.3147   2
  -5  -2   4 82.1445 81.5687   2
   5  -2   4-54.5611 58.5276   3
   5  -2  -4-30.1252 38.8099   2
  -5  -2   4 62.1160 53.3951   1
   5  -2   4-20.7250 80.0058   1
  -5   3   4 6086.92 214.181   1
   5  -3   4 6952.95 419.405   1
   5  -3   4 7488.46 385.020   2
  -5   3  -4 8132.37 397.847   2
  -5   3   4 7561.11 327.363   2
  -5  -3   4 7034.82 419.586   2
   5  -3  -4 6749.73 321.034   2
   5   3   4 7560.96 423.395   1
   5  -4   4 203.978 109.696   1
   5  -4   4 39.8758 61.2607   2
  -5   4   4 75.1231 47.9649   2
  -5   4  -4-23.7312 48.0527   2
  -5  -4   4 55.0469 69.5325   2
   5  -4  -4 15.4940 50.1367   3
   5  -4  -4 18.2508 33.8178   2
   5   4   4-0.91063 74.7449   1
   5  -5   4 1449.68 172.299   2
   5  -5   4 1361.70 205.362   1
  -5  -5   4 1780.48 231.713   2
   5  -5  -4 1551.22 188.475   3
  -5   5   4 1556.89 136.068   2
  -5   5  -4 1598.95 178.812   2
   5   5   4 1695.61 215.073   1
   5  -5  -4 1641.17 139.565   2
  -5   6   4 491.256 76.0522   2
   5  -6   4 504.156 106.768   2
   5  -6   4 539.425 136.398   1
  -5   6  -4 411.640 95.3503   2
  -5  -6   4 362.436 123.076   2
   5  -6  -4 613.280 82.9105   2
   5   6   4 476.323 121.988   1
   5  -7   4 838.083 135.352   2
   5  -7   4 1003.65 178.950   1
  -5   7  -4 1077.09 150.462   2
  -5  -7   4 1183.57 210.982   2
   5   7   4 908.255 169.514   1
   5  -8   4-0.35072 51.2778   2
   5  -8   4-32.2624 78.1816   1
  -5  -8   4-130.039 93.6317   2
   5   8   4-82.2257 102.280   1
   5  -9   4 34.6721 60.2426   2
  -5  -9   4 200.739 103.317   2
   5  -9   4 220.683 115.444   1
  -5 -10   4 7.62347 99.5914   2
   5 -10   4-64.3810 125.947   1
  -5 -11   4 229.236 142.712   2
   5 -11   4-84.0386 122.653   1
   5 -12   4 207.437 134.695   1
   6   0   4 3708.27 323.017   1
  -6   0   4 3289.61 268.047   2
  -6   0   4 3187.74 237.948   1
  -6   1   4 272.239 72.7248   1
   6   1   4 315.100 119.573   1
  -6   1   4 403.425 97.8585   2
  -6  -1   4 404.191 114.076   2
   6  -1   4 203.589 105.987   1
   6  -1  -4 336.728 88.6397   2
  -6  -1   4 224.502 82.1283   1
   6   2   4 12972.0 593.987   1
  -6   2   4 12721.2 410.143   1
   6  -2   4 12643.2 591.235   1
  -6   2   4 13050.6 472.818   2
  -6  -2   4 14019.4 597.887   2
   6  -2  -4 13405.1 484.929   2
   6  -3   4 110.313 81.4106   2
   6   3   4 107.060 95.2430   1
  -6   3   4 10.0437 42.6915   2
  -6  -3   4 71.0415 83.7640   2
   6  -3   4 67.6685 87.7245   1
  -6   3   4 89.8270 50.3875   1
   6  -3  -4 14.5011 39.4523   2
   6  -4   4 10504.9 559.225   1
  -6   4   4 9804.70 271.224   1
   6  -4   4 9684.08 450.141   2
  -6   4   4 9967.76 357.937   2
  -6  -4   4 9918.44 543.443   2
   6   4   4 10511.1 546.654   1
   6  -4  -4 9992.16 365.004   2
   6  -5   4 2427.80 280.126   1
   6  -5   4 2242.41 216.191   2
  -6   5   4 2581.49 172.999   2
  -6   5  -4 2345.54 219.314   2
  -6  -5   4 2642.79 295.196   2
   6   5   4 2368.10 270.594   1
   6  -6   4 13648.8 654.686   1
   6  -6   4 13925.4 521.185   2
  -6   6   4 13307.5 332.690   2
  -6   6  -4 15671.4 554.554   2
  -6  -6   4 13679.3 682.205   2
   6   6   4 13525.8 647.147   1
   6  -7   4 34.9861 66.8349   2
   6  -7   4 174.737 101.371   1
  -6  -7   4 182.600 106.647   2
   6   7   4 318.774 117.968   1
   6  -8   4 8997.10 563.813   1
   6   8   4 8569.75 538.689   1
  -6  -8   4 7850.32 554.089   2
   6  -9   4 97.2563 111.701   1
  -6  -9   4 55.2646 84.0455   2
   6 -10   4 5885.07 484.643   1
  -6 -10   4 6040.50 522.763   2
   6 -11   4 66.4815 85.5654   1
   6 -12   4 2013.95 304.328   1
   7   0   4 207.386 110.692   1
  -7   0   4 213.561 89.4860   2
   7   1   4 455.409 139.211   1
  -7   1   4 141.901 54.9977   1
   7  -1   4 169.142 108.822   1
  -7   1   4 355.712 94.8878   2
  -7  -1   4 242.764 85.0818   2
   7   2   4 765.461 171.764   1
  -7   2   4 551.465 110.588   2
   7  -2   4 687.644 163.970   1
  -7  -2   4 664.610 149.726   2
  -7   2   4 650.327 111.212   1
  -7   3   4 718.817 112.641   2
  -7  -3   4 825.180 169.406   2
   7  -3   4 963.690 187.250   1
   7   3   4 790.520 172.649   1
  -7   4   4 255.649 74.2193   2
  -7  -4   4 455.053 152.337   2
   7  -4   4 384.064 128.344   1
   7   4   4 237.334 115.418   1
  -7  -5   4 1446.41 231.656   2
   7  -5   4 1228.69 213.625   1
   7   5   4 1099.23 203.328   1
  -7  -6   4-51.7874 112.485   2
   7   6   4-57.5952 91.2119   1
   7  -6   4 17.4621 78.2288   1
  -7  -7   4 30.4061 112.402   2
   7   7   4 190.061 129.720   1
   7  -7   4 24.3653 79.9212   1
  -7  -8   4 353.842 148.048   2
   7   8   4 226.215 131.922   1
   7  -8   4 345.599 143.820   1
  -7  -9   4-82.6006 122.081   2
   7   9   4 60.7484 85.3905   1
   7  -9   4 9.67514 96.7092   1
   7 -10   4-15.6130 84.0853   1
   7 -11   4-170.284 133.225   1
   8   0   4 7821.72 525.273   1
  -8   0   4 7981.67 464.923   2
   8   1   4 920.166 192.921   1
   8  -1   4 679.847 164.281   1
  -8   1   4 817.316 153.363   2
  -8  -1   4 956.038 180.792   2
   8  -2   4 9254.23 578.122   1
  -8   2   4 10408.9 468.002   2
  -8  -2   4 9304.60 542.603   2
   8   2   4 9133.20 572.890   1
   8  -3   4 1489.51 245.378   1
  -8  -3   4 1746.44 257.476   2
  -8   3   4 1683.05 177.502   2
   8   3   4 1993.47 282.766   1
   8  -4   4 4181.12 396.370   1
  -8  -4   4 4629.54 416.076   2
   8   4   4 3757.48 384.882   1
  -8  -5   4 148.544 128.709   2
   8  -5   4 411.569 154.148   1
   8   5   4 630.938 180.607   1
   8  -6   4 5276.12 458.893   1
   8   6   4 4936.59 447.777   1
  -8  -6   4 5356.86 467.093   2
   8   7   4 183.449 121.088   1
   8  -7   4 78.3488 117.734   1
  -8  -8   4 2997.75 381.632   2
   8  -8   4 2394.32 321.811   1
   8   8   4 3284.65 381.327   1
   8  -9   4-43.4421 96.6508   1
   9   0   4 1.47463 84.9692   1
  -9   0   4 28.9535 67.8296   2
   9   1   4 83.1166 89.1306   1
   9  -1   4 105.917 116.685   1
  -9   1   4-35.8117 65.7621   2
  -9  -1   4 48.7312 76.7876   2
   9  -2   4 261.803 132.820   1
  -9  -2   4 242.120 132.407   2
   9   2   4-61.3606 117.307   1
   9  -3   4 146.262 115.040   1
  -9  -3   4 116.502 146.964   2
   9   3   4 15.9295 70.0364   1
   9  -4   4 299.054 149.730   1
  -9  -4   4 520.446 166.520   2
   9   4   4 359.785 153.344   1
   9  -5   4 138.822 96.6374   1
  -9  -5   4 56.6841 90.9372   2
   9   5   4 2.38718 122.856   1
   9  -6   4 118.868 108.478   1
  -9  -6   4 9.96225 90.8880   2
   9   6   4-78.9693 107.940   1
   9  -7   4 37.9368 94.3094   1
  10   0   4 3954.86 429.475   1
  10  -1   4 131.445 109.206   1
 -10  -1   4 201.650 110.374   2
  10  -2   4 2890.29 360.996   1
 -10  -2   4 3068.89 360.470   2
 -10  -3   4-162.542 138.714   2
 -10  -4   4 1560.69 264.224   2
   0   0   5 88.3916 69.6894   2
   0   0  -5-53.4484 59.0018   2
   0   0   5 48.3140 51.5610   1
   0   1   5 7667.10 312.190   1
   0  -1   5 7203.62 339.841   1
   0   1  -5 6491.31 361.090   2
   0   1  -5 7875.14 223.117   3
   0   1   5 7288.50 372.171   2
   0  -1   5 7146.29 371.206   2
   0  -1  -5 7367.69 375.839   2
   0   2   5-2.12194 62.1635   2
   0  -2   5 54.5197 75.2825   2
   0  -2  -5-4.31910 47.0946   2
   0   2  -5 24.4431 61.5130   2
   0  -2   5-5.80998 56.0246   1
   0   2  -5-21.2986 36.3325   3
   0   2   5-16.9735 40.5032   1
   0   3   5 17741.9 431.761   1
   0  -3   5 16620.2 572.571   1
   0   3  -5 17649.2 476.931   3
   0   3   5 17158.8 577.365   2
   0  -3  -5 17433.2 583.244   2
   0  -3   5 17484.8 601.684   2
   0  -4  -5 22.5687 33.1755   1
   0   4   5 8.76202 34.6948   1
   0  -4  -5-35.7093 49.6852   2
   0  -4   5-6.06634 61.4662   2
   0  -4   5-9.21877 54.2028   1
   0   5   5 69.4000 56.0114   2
   0  -5   5 17.5939 66.5767   2
   0  -5  -5 52.8241 33.4302   1
   0   5   5 46.3584 37.5439   1
   0   6   5 57.2137 53.4976   2
   0  -6  -5 62.7623 37.9627   1
   0  -6   5 50.3207 66.7901   2
   0   6   5-12.4918 32.4704   3
   0   6   5 3.71354 28.9078   1
   0  -7  -5 4206.10 199.292   1
   0   7   5 4369.73 235.860   3
   0  -7   5 4366.89 341.500   2
   0  -8   5-3.58878 60.6198   2
   0  -8  -5-25.2743 27.7719   1
   0   8   5-37.9699 50.1999   3
   0  -9   5 72.1085 69.2451   2
   0   9   5 87.2456 75.1644   3
   0 -10   5-84.0766 77.3615   2
   0  10  -5 33.3995 85.0237   3
   0  10   5-127.521 79.8629   3
   0 -11   5 1116.69 200.430   2
   0  11  -5 1423.00 254.541   3
   0  11   5 1151.88 182.501   3
   0 -12   5-58.5832 74.4109   2
   0  12  -5-102.998 114.341   3
   0 -13   5 159.496 109.610   2
   0  13  -5 506.245 186.015   3
   0 -14   5 29.8715 82.9009   2
   1   0   5 14490.5 480.421   1
  -1   0   5 15374.8 446.551   1
   1   0   5 14073.2 525.335   2
  -1   0   5 15347.9 536.381   2
  -1   0  -5 13908.4 524.509   2
   1   0  -5 14686.4 533.126   2
  -1   1   5 446.507 80.5322   1
   1   1   5 464.808 88.7490   1
   1   1   5 376.333 107.952   2
  -1  -1  -5 276.744 73.9918   1
   1  -1   5 443.577 102.483   2
  -1   1   5 266.119 80.2796   2
  -1  -1   5 517.054 112.415   2
  -1  -1  -5 296.265 87.3396   2
  -1   1  -5 405.901 97.6179   2
   1  -1  -5 438.991 103.986   2
   1   1  -5 266.194 82.7309   2
   1  -1   5 479.088 99.1089   1
  -1  -1   5 395.611 88.9920   1
   1   2   5 62354.1 921.458   1
  -1   2   5 63138.9 770.777   1
   1  -2   5 62383.5 1074.83   1
  -1  -2  -5 61206.5 927.958   1
   1   2   5 62445.7 1115.71   2
  -1   2   5 61521.6 1063.05   2
   1  -2   5 62755.4 1110.02   2
  -1  -2  -5 60202.4 1106.41   2
  -1  -2   5 63298.2 1121.77   2
   1  -2  -5 63908.5 1083.82   2
  -1   2  -5 61572.2 1118.01   2
   1   3   5 4200.45 238.411   1
  -1   3   5 4284.54 184.843   1
  -1  -3  -5 4516.92 247.620   1
   1  -3   5 4290.73 297.139   1
  -1   3  -5 4244.87 239.140   3
   1   3   5 4682.56 312.401   2
  -1   3   5 4249.29 283.735   2
   1  -3   5 4109.52 293.222   2
   1  -3  -5 4627.44 293.981   2
  -1  -3   5 4700.76 319.846   2
  -1   4   5 21531.3 364.920   1
   1   4   5 21331.4 530.936   1
  -1  -4  -5 19800.9 510.307   1
   1  -4   5 21013.5 683.364   1
  -1   4  -5 21190.6 589.053   3
   1   4   5 21256.3 669.520   2
  -1   4   5 20595.0 614.523   2
   1  -4   5 21023.0 665.457   2
   1  -4  -5 20612.2 622.919   2
  -1  -4   5 20184.5 678.776   2
   1   5   5 1387.73 179.136   2
  -1   5   5 1222.61 158.367   2
   1  -5   5 1164.37 169.692   2
   1  -5  -5 1059.74 149.820   2
  -1  -5  -5 1216.11 130.892   1
  -1  -5   5 846.299 155.910   2
  -1   5  -5 919.879 145.290   3
   1  -5   5 1182.89 174.186   1
  -1   5   5 848.555 62.4646   1
   1   5   5 1229.75 132.699   1
  -1  -6  -5 15267.3 447.581   1
   1  -6   5 14694.5 626.499   1
  -1   6  -5 14971.0 594.447   3
  -1   6   5 15231.0 540.856   2
   1  -6  -5 15009.2 547.762   2
   1  -6   5 14377.4 582.610   2
  -1  -6   5 14894.8 624.330   2
   1   6   5 15606.4 447.469   1
  -1  -7  -5 163.972 55.9204   1
   1  -7  -5 218.227 79.6687   2
   1  -7   5 340.444 111.025   2
  -1  -7   5 133.749 83.9251   2
   1   7   5 100.394 53.1998   1
  -1   7  -5 224.182 99.6806   3
   1  -7   5 406.333 134.075   1
  -1  -8  -5 7152.92 320.755   1
   1  -8   5 7970.64 503.948   1
  -1   8  -5 8188.66 503.268   3
   1  -8   5 7090.89 429.593   2
  -1  -8   5 8160.59 491.415   2
   1  -9   5 2389.50 296.237   1
  -1   9  -5 2697.21 312.405   3
  -1   9   5 2382.89 217.921   3
   1  -9   5 2163.66 250.546   2
  -1  -9   5 2415.08 273.192   2
   1  10   5 11227.8 507.781   3
  -1  10  -5 12770.5 701.562   3
   1 -10   5 11489.3 649.933   1
  -1  10   5 11675.9 517.447   3
   1 -10   5 10042.9 543.402   2
  -1 -10   5 11106.9 602.482   2
   1 -11   5 1003.95 216.838   1
   1 -11   5 668.568 154.686   2
  -1 -11   5 492.636 146.686   2
   1  11   5 590.794 133.627   3
  -1  11  -5 720.075 189.096   3
  -1  11   5 611.956 137.443   3
   1 -12   5 3411.61 381.745   1
  -1  12  -5 3415.87 412.274   3
   1 -12   5 3366.23 334.826   2
  -1 -12   5 3225.40 344.801   2
   1 -13   5 352.830 125.296   2
  -1 -13   5 307.699 131.547   2
  -1  13  -5 68.2477 92.4467   3
  -1 -14   5 2652.93 335.370   2
   2   0   5 2158.73 202.685   1
  -2   0  -5 2085.03 198.697   1
   2   0   5 2079.46 209.997   2
  -2   0   5 1730.92 186.901   2
   2   0  -5 2127.07 212.542   2
   2   1   5 553.816 121.232   2
   2  -1   5 414.278 102.573   2
  -2  -1  -5 394.573 95.1132   1
  -2   1   5 435.564 96.1116   2
  -2  -1   5 440.020 108.972   2
   2  -1   5 323.897 91.8091   1
   2  -1  -5 292.679 86.2361   2
   2   1  -5 302.481 89.9045   2
   2   1   5 373.817 55.7614   3
  -2   1   5 424.283 76.3084   1
   2   1   5 449.839 101.139   1
   2   2   5 1506.54 165.189   1
   2  -2   5 1439.41 177.969   2
  -2   2   5 1699.40 121.001   1
   2  -2  -5 1422.02 164.933   2
  -2  -2  -5 1653.16 174.560   1
   2  -2  -5 1622.60 87.7658   3
   2   2   5 1586.30 193.828   2
   2  -2   5 1286.24 173.559   1
  -2   2   5 1589.53 176.387   2
  -2  -2   5 1802.51 201.062   2
   2   3   5 13.4149 59.0923   2
  -2   3   5-7.95488 57.8602   2
   2  -3   5 30.5988 64.4138   2
  -2  -3   5 50.3606 71.0239   2
   2   3   5 47.6403 56.1518   1
   2  -3  -5 23.7967 48.0091   2
   2  -3   5-8.82879 64.7401   1
  -2  -3  -5 27.6381 39.5949   1
  -2   3   5 10.1085 21.8525   1
   2   4   5 1328.93 154.297   1
   2   4   5 1019.73 161.788   2
  -2   4   5 1287.30 156.056   2
   2  -4   5 1128.27 165.710   2
   2  -4   5 1231.87 178.606   1
  -2  -4  -5 1286.50 148.297   1
   2  -4  -5 1060.94 139.652   2
  -2  -4   5 1237.39 178.002   2
  -2  -5  -5 6447.22 328.235   1
   2  -5   5 6493.71 407.354   1
  -2   5  -5 6551.49 369.310   3
   2   5   5 6817.37 400.763   2
  -2   5   5 6989.17 352.467   2
   2  -5   5 6500.02 376.430   2
   2  -5  -5 6439.67 341.950   2
  -2  -5   5 6501.59 407.967   2
   2   5   5 6979.69 342.359   1
  -2   6   5 251.930 85.6306   2
  -2  -6  -5 95.6319 54.9821   1
   2  -6   5 76.8188 64.0402   2
   2  -6  -5 132.945 73.3282   2
  -2  -6   5 140.135 83.8214   2
  -2   6  -5 132.504 89.6594   3
   2  -6   5 271.820 107.767   1
   2   6   5 111.440 71.3314   1
  -2   7   5 333.667 89.0567   2
  -2  -7  -5 383.365 86.8794   1
   2  -7   5 246.753 109.062   1
   2  -7   5 253.482 92.0077   2
   2  -7  -5 213.353 72.8631   2
  -2  -7   5 182.796 84.5575   2
  -2   7  -5 115.879 90.6099   3
   2   7   5 275.207 82.7492   1
   2  -8   5 763.120 171.700   1
   2  -8   5 598.614 139.740   2
   2  -8  -5 678.057 115.453   2
  -2  -8   5 739.365 168.572   2
  -2   8  -5 418.048 139.772   3
  -2  -8  -5 743.654 119.749   1
   2  -9   5 56.9495 65.5328   2
   2  -9   5 16.8306 72.8142   1
  -2  -9   5 27.2700 73.9325   2
  -2   9  -5-146.542 114.310   3
   2 -10   5 170.617 102.971   2
  -2 -10   5-48.1851 94.6858   2
   2 -10   5 49.4664 95.3744   1
  -2  10  -5-79.3603 117.241   3
   2 -11   5 143.659 69.5402   2
  -2 -11   5 208.414 122.943   2
   2 -11   5 119.833 96.8777   1
  -2  11  -5 140.014 128.091   3
   2 -12   5-15.5659 67.3840   2
   2 -12   5-99.8000 117.621   1
  -2 -12   5 58.4708 104.169   2
  -2  12  -5 130.183 99.6833   3
  -2 -13   5-16.8979 85.1077   2
   3   0   5 32384.7 818.769   1
   3   0   5 29367.7 599.840   3
   3   0   5 30685.0 812.978   2
  -3   0   5 29360.4 762.139   2
   3   0  -5 30935.3 805.360   2
   3   1   5 552.564 129.324   2
   3  -1   5 532.607 118.682   1
   3  -1   5 516.681 119.852   2
  -3   1   5 465.229 110.268   2
  -3  -1   5 617.387 132.730   2
  -3  -1  -5 527.629 108.181   1
   3  -1  -5 551.490 116.762   2
   3  -1   5 464.509 85.1514   3
   3   1   5 414.112 109.169   1
   3   2   5 46775.0 951.945   1
   3  -2   5 48475.7 1033.32   1
  -3  -2  -5 46811.1 964.811   1
  -3   2   5 48535.9 614.076   1
   3   2   5 47696.2 1042.53   2
   3  -2   5 45788.3 991.962   2
  -3   2   5 47257.7 913.711   2
  -3  -2   5 47174.4 1031.25   2
   3  -2  -5 48819.8 958.397   2
   3   3   5 421.704 120.628   2
   3  -3   5 299.727 101.331   2
  -3   3   5 470.995 95.7096   2
   3  -3  -5 335.777 65.9036   3
   3   3   5 425.670 107.346   1
  -3  -3   5 508.537 126.800   2
   3  -3  -5 384.528 96.0054   2
  -3   3   5 320.264 39.7929   1
   3  -3   5 287.158 94.3526   1
  -3  -3  -5 488.228 108.940   1
  -3   3   5 374.545 43.6209   1
   3   4   5 26854.8 721.535   1
  -3  -4  -5 26673.6 727.426   1
   3  -4   5 26231.3 807.261   1
   3   4   5 25363.9 788.096   2
  -3   4   5 27083.5 678.997   2
   3  -4   5 27226.1 760.840   2
  -3  -4   5 25081.6 801.977   2
   3  -4  -5 27715.0 695.240   2
  -3   5   5 394.545 91.6992   2
   3  -5   5 505.173 116.149   2
  -3  -5  -5 459.172 101.009   1
   3  -5  -5 421.418 94.1191   2
  -3  -5   5 343.533 117.780   2
   3  -5   5 407.677 122.351   1
   3   5   5 297.799 92.6074   1
   3  -6   5 14759.9 652.072   1
  -3   6   5 15105.5 500.340   2
   3  -6   5 13628.3 564.684   2
   3  -6  -5 14120.3 491.184   2
  -3  -6   5 14643.6 651.125   2
   3   6   5 15431.1 562.577   1
  -3   7   5 456.882 96.4532   2
   3  -7   5 548.115 124.592   2
   3  -7   5 593.179 153.075   1
   3  -7  -5 514.718 98.8707   2
  -3  -7   5 473.837 133.173   2
   3   7   5 546.650 121.387   1
   3  -8   5 9122.75 551.832   1
  -3   8  -5 8482.87 530.821   3
   3  -8   5 7201.69 424.212   2
   3   8   5 7912.69 417.026   1
  -3  -8   5 7252.06 495.224   2
   3  -9   5-11.0805 67.2336   2
   3  -9   5-34.3508 89.2086   1
  -3  -9   5-93.3288 93.4245   2
  -3   9  -5-87.6779 124.428   3
   3 -10   5 7856.46 554.719   1
  -3  10  -5 7896.35 576.335   3
   3 -10   5 7370.85 444.438   2
  -3 -10   5 6825.93 505.837   2
   3 -11   5 520.324 136.831   2
  -3 -11   5 663.825 178.738   2
   3 -11   5 634.899 177.036   1
  -3  11  -5 134.834 110.613   3
  -3 -12   5 2557.24 331.990   2
   3 -12   5 2687.16 347.271   1
  -3  12  -5 2497.18 360.336   3
   4   0   5 2646.20 251.167   1
   4   0   5 2312.67 196.752   3
   4   0   5 2735.87 257.797   2
  -4   0   5 2999.97 256.702   2
  -4   0   5 2770.70 197.764   1
   4   1   5 155.758 91.5425   2
   4  -1   5 58.8615 64.1815   2
  -4   1   5 389.683 101.157   2
  -4  -1   5 146.819 68.8627   2
   4   1   5 230.820 105.853   1
   4  -1  -5 217.754 78.3537   2
   4  -1   5 100.074 58.7743   3
  -4   1   5 219.181 58.3845   1
   4  -1   5 325.962 112.162   1
   4  -2   5 1048.28 173.652   1
   4   2   5 961.008 170.079   2
   4  -2   5 1037.36 158.060   2
  -4   2   5 1100.52 146.773   2
   4   2   5 1125.03 169.786   1
  -4  -2   5 1400.29 192.605   2
   4  -2  -5 1113.72 155.240   2
   4  -2   5 1137.62 152.536   3
  -4   2   5 1146.86 100.826   1
   4  -3   5 315.644 89.8571   2
  -4   3   5 271.186 38.8572   1
   4  -3   5 316.094 110.460   1
   4   3   5 269.353 105.491   1
  -4   3   5 273.163 78.3591   2
  -4   3   5 171.837 34.0306   1
  -4  -3   5 263.858 90.2008   2
   4  -3  -5 234.691 78.3146   2
   4  -3   5 261.858 93.0420   3
   4  -3  -5 291.924 70.1298   3
   4  -4   5 1663.35 215.389   1
   4  -4  -5 2132.78 185.021   3
   4  -4   5 2033.70 216.509   2
  -4   4   5 2034.62 186.983   2
  -4  -4   5 1999.51 243.414   2
   4  -4  -5 1664.68 178.545   2
   4   4   5 1865.19 215.356   1
  -4   5   5 596.259 105.657   2
   4  -5   5 592.918 126.338   2
  -4  -5   5 643.319 145.605   2
   4  -5   5 592.642 155.665   1
   4  -5  -5 603.317 102.289   2
   4  -5  -5 648.256 108.817   3
   4   5   5 436.785 116.410   1
  -4   6   5 97.3157 53.1339   2
   4  -6   5 25.2041 63.7683   2
  -4  -6   5 230.262 96.1861   2
   4  -6  -5 125.351 57.7273   2
   4  -6   5 3.97087 88.1723   1
   4   6   5 267.893 110.316   1
  -4   7   5 521.941 96.2149   2
   4  -7   5 602.043 127.026   2
  -4  -7   5 433.331 126.360   2
   4  -7   5 612.812 164.084   1
   4   7   5 854.514 157.114   1
   4  -8   5 900.325 155.101   2
  -4  -8   5 936.916 197.651   2
   4   8   5 837.912 163.470   1
   4  -8   5 1197.71 213.215   1
   4  -9   5-23.2287 64.0071   2
  -4  -9   5 85.3272 100.091   2
   4  -9   5 226.208 103.506   1
   4 -10   5 221.323 94.7172   2
  -4 -10   5 289.062 142.429   2
   4 -10   5-42.5374 91.3628   1
  -4 -11   5-64.8329 93.2721   2
   4 -11   5 33.4719 86.5758   1
   4 -12   5 227.505 133.889   1
   5   0   5 1832.05 228.012   1
   5   0   5 2033.29 233.226   2
  -5   0   5 1878.13 213.632   2
  -5   0   5 1819.16 172.707   1
   5   1   5 318.020 115.648   2
   5  -1   5 481.293 123.316   2
  -5   1   5 456.529 111.420   2
  -5  -1   5 395.372 117.520   2
   5   1   5 610.573 137.764   1
   5  -1   5 496.326 119.155   3
  -5  -1   5 485.520 99.4360   1
   5  -1   5 629.186 143.493   1
  -5   1   5 420.823 83.2844   1
   5   2   5 3460.17 304.653   1
   5  -2   5 3630.04 320.109   1
   5  -2   5 2953.62 271.533   2
  -5   2   5 3128.37 247.697   2
  -5  -2   5 3462.23 306.220   2
   5  -2  -5 3075.86 254.964   2
  -5   2   5 3538.41 189.789   1
   5  -3   5 318.323 104.557   2
   5   3   5 280.516 117.025   1
  -5   3   5 155.382 77.2439   2
  -5  -3   5 135.927 108.058   2
  -5   3   5 118.618 37.8943   1
   5  -3  -5 63.7953 51.2121   2
   5  -3   5 141.762 99.7257   1
   5  -4   5 13916.5 641.651   1
   5  -4  -5 13030.1 508.963   3
   5  -4   5 14144.5 576.072   2
  -5   4   5 13697.5 476.330   2
  -5  -4   5 13808.2 643.785   2
   5  -4  -5 13035.0 488.665   2
   5   4   5 13457.0 602.204   1
   5  -5   5 136.637 86.8582   2
  -5   5   5 16.7756 54.1285   2
   5  -5   5 103.901 100.522   1
   5  -5  -5 22.3251 39.8545   2
  -5  -5   5 164.494 135.849   2
   5  -5  -5 39.6368 57.0642   3
   5   5   5 156.192 88.9717   1
   5  -6   5 14475.7 690.730   1
  -5   6   5 16361.3 488.006   2
   5  -6   5 14292.4 580.278   2
  -5  -6   5 15319.7 724.287   2
   5   6   5 14930.1 652.519   1
  -5   7   5 106.852 52.2886   2
   5  -7   5 121.016 92.0445   2
   5  -7   5-2.58207 66.4000   1
  -5  -7   5 12.8656 120.859   2
   5   7   5 94.6429 82.7600   1
   5  -8   5 12753.7 686.188   1
   5  -8   5 11971.4 532.796   2
   5   8   5 12368.6 616.874   1
  -5  -8   5 11941.8 680.894   2
   5  -9   5 550.282 129.033   2
  -5  -9   5 511.782 169.152   2
   5  -9   5 380.442 146.515   1
   5   9   5 464.009 136.699   1
   5 -10   5 6065.78 505.356   1
  -5 -10   5 6296.15 529.785   2
   5 -11   5 143.096 96.0518   1
  -6   0   5 17.0587 73.3695   2
   6   0   5-32.0314 75.7059   1
  -6   0   5 44.7522 43.8189   1
   6  -1   5 307.068 118.541   2
  -6   1   5 156.986 62.3959   1
   6   1   5 314.919 113.637   1
  -6   1   5 212.198 93.0544   2
  -6  -1   5 155.105 91.2405   2
   6  -1   5 84.9655 73.2852   1
   6  -2   5 103.088 83.1622   2
   6   2   5 54.6395 78.8223   1
  -6   2   5 173.159 52.8752   1
  -6   2   5 143.546 73.7642   2
  -6  -2   5 190.612 89.2565   2
   6  -2   5 61.7461 86.7007   1
   6  -3   5 945.130 158.286   2
   6   3   5 835.752 171.198   1
  -6   3   5 965.638 143.631   2
  -6  -3   5 771.817 166.052   2
   6  -3  -5 815.298 138.970   2
   6  -3   5 942.153 187.312   1
   6  -4   5 66.4268 66.4424   2
  -6   4   5 373.183 87.7554   2
  -6  -4   5 399.861 141.378   2
   6  -4   5 314.964 134.307   1
   6   4   5 195.254 94.8780   1
   6  -5   5 1575.31 205.429   2
  -6  -5   5 1741.50 251.524   2
  -6   5   5 1609.72 160.211   2
   6   5   5 1868.14 247.098   1
   6  -5   5 1562.65 245.053   1
   6  -6   5 2091.74 281.688   1
   6  -6   5 1625.87 210.587   2
  -6  -6   5 1852.43 269.396   2
   6   6   5 1477.18 237.792   1
   6  -7   5 36.4803 58.4006   2
   6  -7   5 74.2542 114.568   1
  -6  -7   5 118.962 97.6129   2
   6   7   5 151.224 127.504   1
   6  -8   5 176.503 116.766   1
  -6  -8   5 162.139 118.549   2
   6   8   5 113.816 142.226   1
   6  -9   5 101.979 100.624   1
  -6  -9   5 35.9142 88.0756   2
   6   9   5 331.882 184.382   1
   6 -10   5-172.442 115.399   1
   7   0   5 22046.2 866.099   1
  -7   0   5 22095.7 767.827   2
   7   1   5 651.794 169.264   1
  -7   1   5 660.950 149.765   2
   7  -1   5 696.727 176.558   1
  -7  -1   5 704.387 154.626   2
   7   2   5 12060.5 639.878   1
   7  -2   5 11932.4 647.789   1
  -7   2   5 12304.7 526.748   2
  -7  -2   5 12252.0 617.898   2
   7   3   5 240.700 142.854   1
  -7   3   5 182.828 83.4166   2
  -7  -3   5 123.857 131.850   2
   7  -3   5 92.3461 89.6926   1
   7  -4   5 9415.35 584.237   1
  -7   4   5 9445.10 401.483   2
  -7  -4   5 9468.47 580.396   2
   7   4   5 8465.59 549.643   1
   7  -5   5 143.629 105.769   2
  -7  -5   5 39.2320 75.0130   2
   7  -5   5 176.851 137.634   1
   7   5   5 56.5030 89.2612   1
   7  -6   5 4213.42 409.800   1
   7  -6   5 4033.45 326.267   2
  -7  -6   5 3811.24 396.803   2
   7   6   5 4204.59 403.073   1
  -7  -7   5 64.2781 88.9703   2
   7   7   5 257.244 144.564   1
   7  -7   5-27.1006 101.691   1
   7   8   5 3172.73 364.972   1
  -7  -8   5 3036.15 376.945   2
   7  -8   5 2292.29 316.227   1
   7   9   5 19.2643 107.031   1
   7  -9   5 73.5842 124.745   1
   8   0   5 87.5392 108.727   1
  -8   0   5-9.43175 72.8360   2
   8   1   5 76.9376 75.4184   1
   8  -1   5-80.5051 104.762   1
  -8   1   5-65.1269 68.6883   2
  -8  -1   5 48.6394 77.9699   2
   8   2   5 147.693 117.628   1
  -8   2   5 182.224 74.4903   2
   8  -2   5 86.6330 102.832   1
  -8  -2   5 47.0879 83.5240   2
   8  -3   5 58.4056 100.689   1
  -8  -3   5 149.202 145.907   2
   8   3   5 61.2058 122.238   1
  -8  -4   5 249.398 149.521   2
   8  -4   5 36.0798 93.0337   1
   8   4   5 45.3666 110.728   1
  -8  -5   5-60.1660 115.007   2
   8  -5   5 16.1691 92.3419   1
   8   5   5-33.6322 84.0832   1
  -8  -6   5 380.311 139.363   2
   8  -6   5 292.924 150.929   1
   8   6   5 133.224 87.6221   1
  -8  -7   5-93.8490 105.328   2
   8  -7   5 0.82026 91.6904   1
   8   7   5 16.8597 109.764   1
   9   0   5 2791.55 354.149   1
  -9   0   5 3319.22 335.471   2
   9   1   5 12.7974 91.7991   1
   9  -1   5 35.9873 112.381   1
  -9   1   5 190.676 89.0627   2
  -9  -1   5 317.240 115.700   2
   9  -2   5 1639.68 276.260   1
  -9  -2   5 1788.96 276.043   2
   9   2   5 2057.74 308.115   1
   9  -3   5 84.7565 93.5669   1
  -9  -3   5 143.745 170.904   2
   9   3   5 12.9737 102.662   1
   9  -4   5 2552.14 352.406   1
  -9  -4   5 2381.82 322.855   2
   9   4   5 2343.38 332.624   1
  -9  -5   5 8.28348 106.291   2
 -10  -1   5-136.326 126.166   2
 -10  -2   5-78.6720 121.870   2
 -10  -3   5 102.263 107.102   2
   0   0   6 6742.57 338.801   1
   0   0   6 6360.29 388.828   2
   0   1   6-3.05769 62.8285   2
   0  -1   6-63.8813 55.0576   2
   0  -1   6-3.88689 52.8408   1
   0   1   6-44.6943 48.4824   1
   0   2   6 4191.93 247.108   1
   0  -2   6 3811.16 286.539   1
   0   2  -6 4188.47 203.842   3
   0   2   6 4159.36 316.218   2
   0  -2   6 3562.50 297.462   2
   0   3   6-80.8441 81.4023   2
   0  -3   6-9.86698 70.5416   2
   0  -3   6 10.1349 70.4947   1
   0   3  -6-53.2714 48.0517   3
   0   3   6-13.4778 51.0919   1
   0   4   6 20692.8 505.364   1
   0  -4   6 19362.9 693.138   1
   0   4  -6 20497.1 589.714   3
   0   4   6 20374.6 699.541   2
   0  -4   6 20002.5 723.789   2
   0   5   6 41.0058 90.1298   2
   0  -5   6 20.4873 75.6322   2
   0   5  -6-44.1668 67.2018   3
   0  -5   6 8.09922 66.0202   1
   0   5   6-20.6102 45.7165   1
   0   6  -6 33527.4 901.173   3
   0  -6  -6 33140.1 599.203   1
   0  -6   6 33199.9 986.474   1
   0   6   6 34072.2 916.766   2
   0  -6   6 32949.6 966.378   2
   0   6   6 34155.8 579.566   1
   0  -7   6-31.4859 73.7431   2
   0  -7   6 121.927 111.454   1
   0   7  -6-34.0671 72.0129   3
   0   8  -6 21204.6 819.821   3
   0  -8   6 22982.8 884.761   1
   0  -8   6 21094.8 812.138   2
   0  -9   6 115.169 114.036   1
   0  -9   6-4.35249 66.4712   2
   0   9  -6-72.5090 106.633   3
   0  10  -6 9142.55 608.401   3
   0 -10   6 9729.26 623.290   1
   0 -10   6 8482.55 546.082   2
   0 -11   6 39.7566 112.256   1
   0 -11   6 55.9978 82.9558   2
   0  11  -6-90.0179 94.0268   3
   0  12  -6 3257.29 410.715   3
   0 -12   6 3447.16 371.763   2
   0 -13   6 11.9544 82.5601   2
   1   0   6-62.0303 95.3399   2
  -1   0   6 6.07543 72.7003   2
   1   0   6 106.141 67.2354   1
  -1   0   6 8.41014 51.1554   1
   1   1   6 1974.08 191.789   1
   1  -1   6 1948.46 201.090   1
  -1   1   6 2134.99 177.556   1
  -1  -1   6 1881.27 187.451   1
   1   1  -6 2002.91 117.598   3
   1   1   6 2180.30 238.649   2
   1  -1   6 2115.07 230.624   2
  -1   1   6 2059.75 227.994   2
  -1  -1   6 1844.36 219.769   2
   1   2   6 789.342 149.560   2
  -1   2   6 975.003 167.518   2
   1  -2   6 786.091 148.969   2
  -1   2   6 871.831 107.175   1
  -1  -2   6 695.076 145.387   2
  -1  -2   6 617.581 123.701   1
   1   2   6 973.685 133.326   1
   1  -2   6 695.112 135.757   1
   1   3   6 1739.62 171.096   1
  -1   3   6 2173.61 152.591   1
   1  -3   6 2252.90 236.657   1
  -1  -3  -6 2113.54 189.745   1
  -1  -3   6 2264.78 230.632   1
   1   3   6 2238.98 239.755   2
  -1   3   6 2111.77 224.165   2
   1  -3   6 2172.23 245.228   2
  -1  -3   6 2320.53 249.875   2
  -1   4   6 818.293 90.1821   1
   1   4   6 1041.97 173.990   2
  -1   4   6 994.721 155.083   2
   1  -4   6 625.843 143.424   2
   1   4   6 1122.69 142.407   1
  -1  -4   6 1059.97 181.647   2
  -1  -4  -6 1054.84 133.096   1
  -1   4  -6 901.102 131.144   3
   1  -4   6 1048.73 174.510   1
   1   5   6 1169.41 141.491   1
   1   5   6 1568.66 210.571   2
  -1   5   6 1483.73 193.192   2
   1  -5   6 1168.02 190.515   1
   1  -5   6 926.171 165.590   2
  -1  -5   6 1170.93 195.155   2
  -1   5  -6 1063.94 161.578   3
  -1  -5  -6 1162.37 140.628   1
  -1   5   6 985.625 81.6205   1
   1   6   6 439.244 123.280   2
  -1   6   6 476.393 125.697   2
   1  -6   6 216.846 96.6131   2
  -1  -6   6 203.818 104.538   2
  -1  -6  -6 334.862 81.1391   1
   1  -6   6 427.953 117.923   1
  -1   6  -6 174.621 84.8123   3
   1   6   6 246.850 44.4610   3
   1   6   6 302.079 77.2720   1
  -1   7   6 374.071 111.046   2
   1  -7   6 309.655 103.581   2
  -1  -7   6 507.438 139.840   2
   1   7   6 404.943 68.4383   3
   1  -7   6 401.471 138.104   1
  -1   7  -6 539.495 161.984   3
   1   7   6 481.581 86.0707   1
   1  -8   6-62.8185 78.6866   2
  -1  -8   6-70.1208 86.6248   2
  -1   8  -6-38.1131 113.033   3
   1  -8   6 54.9515 108.463   1
   1  -9   6 38.0282 74.0404   2
  -1  -9   6 92.5343 82.7397   2
  -1   9  -6 100.866 102.110   3
   1  -9   6-11.2254 82.4239   1
   1 -10   6-9.47444 67.7662   2
  -1 -10   6 186.985 115.756   2
  -1  10  -6-135.464 143.539   3
   1 -10   6 15.0269 82.6890   1
   1 -11   6 571.584 157.160   2
  -1 -11   6 358.608 137.405   2
  -1  11  -6 852.312 208.110   3
   1 -11   6 673.413 184.258   1
   1 -12   6 377.766 134.804   2
  -1 -12   6 278.688 135.709   2
   1  12  -6-8.25918 136.147   3
  -1  12  -6 8.35627 134.870   3
   1 -13   6 197.622 125.193   2
   2   0   6 47535.6 1004.58   1
  -2   0   6 47894.0 851.921   1
   2   0   6 46699.2 1084.00   2
  -2   0   6 46655.9 1045.04   2
  -2  -1   6 14.8010 50.9925   1
   2   1   6 15.5087 86.4534   2
   2  -1   6 5.56837 68.1743   2
  -2   1   6-15.3416 59.1903   2
  -2  -1   6-43.3905 71.7730   2
   2  -1   6 88.9321 84.1129   1
  -2   1   6-21.7439 40.5619   1
   2   1   6-61.6585 71.0088   1
   2   2   6 27908.4 737.883   1
   2  -2   6 27947.6 814.297   1
  -2   2   6 29092.3 557.703   1
  -2  -2  -6 27113.0 735.583   1
   2   2   6 28080.3 843.360   2
   2  -2   6 28886.0 853.678   2
  -2   2   6 28252.4 794.191   2
  -2  -2   6 28369.8 842.784   2
   2   3   6 93.0940 79.7878   2
  -2   3   6 164.231 78.4234   2
   2  -3   6 71.3528 73.4594   2
  -2  -3   6 103.110 99.0166   2
   2   3   6 188.240 82.9812   1
   2  -3   6 68.2182 69.9055   1
  -2  -3  -6 86.4111 69.2296   1
  -2   3   6 56.2576 31.2276   1
  -2   4   6 14832.7 270.923   1
   2   4   6 15640.3 540.460   1
   2  -4   6 14988.1 639.042   1
  -2  -4  -6 15259.0 538.037   1
   2   4   6 14989.2 634.120   2
  -2   4   6 16326.8 600.558   2
   2  -4   6 15545.1 634.627   2
  -2  -4   6 14436.9 634.856   2
   2   5   6 67.8499 76.6538   2
   2   5   6 82.8655 64.8651   1
  -2  -5  -6 22.4590 44.2418   1
  -2   5   6-28.8398 65.5140   2
   2  -5   6 103.479 91.3908   2
   2  -5   6 66.7953 76.9960   1
  -2  -5   6-127.551 98.5703   2
  -2  -6  -6 10920.0 453.263   1
   2  -6   6 10396.0 578.337   1
  -2   6  -6 10872.6 529.511   3
  -2   6   6 11964.2 515.747   2
   2  -6   6 11062.8 552.621   2
  -2  -6   6 12080.8 612.466   2
   2   6   6 11709.9 468.964   1
  -2   7   6-13.8888 59.2874   2
   2  -7   6 53.3557 84.6086   2
  -2  -7   6 212.939 110.110   2
   2  -7   6 10.7868 91.9024   1
  -2   7  -6 59.8650 91.2092   3
   2   7   6-46.6553 60.3731   1
   2  -8   6 5311.46 445.640   1
  -2   8  -6 4367.36 388.451   3
   2  -8   6 4555.46 374.999   2
  -2  -8   6 4708.28 414.860   2
   2   8   6 4714.14 298.382   1
   2  -9   6 93.0278 94.7138   2
  -2  -9   6-30.3017 80.0163   2
  -2   9  -6-74.9207 125.888   3
   2  -9   6 27.0081 98.0700   1
   2 -10   6 3639.09 397.743   1
  -2  10  -6 3363.23 391.756   3
   2 -10   6 3740.53 353.474   2
  -2 -10   6 3593.75 381.903   2
   2 -11   6-39.0637 101.283   2
  -2 -11   6 35.7322 106.019   2
  -2  11  -6 121.809 141.059   3
   2 -11   6 11.6691 95.5085   1
  -2 -12   6 3022.73 372.738   2
  -2  12  -6 2820.49 385.203   3
   2 -12   6 2818.26 330.903   2
   3   0   6 9668.97 481.094   1
   3   0   6 9530.19 333.423   3
   3   0   6 9345.81 497.215   2
  -3   0   6 9943.18 489.932   2
  -3   1   6 216.924 63.0677   1
   3  -1   6 300.844 115.027   1
   3   1   6 290.342 104.433   2
   3  -1   6 207.244 87.8928   2
  -3   1   6 128.864 86.6598   2
  -3  -1   6 215.045 77.6852   2
   3   1   6 179.890 52.5171   3
   3   1   6 312.062 109.173   1
   3   2   6 834.714 162.701   2
   3  -2   6 1126.60 183.057   2
  -3   2   6 875.132 145.212   2
   3  -2   6 990.857 175.020   1
  -3   2   6 793.438 95.2515   1
  -3  -2   6 1111.39 184.433   2
   3   2   6 957.661 150.331   1
   3  -2  -6 975.259 89.1607   3
   3   2   6 907.077 96.3212   3
   3   3   6 46.4658 72.7582   2
   3  -3   6 259.173 106.044   2
  -3   3   6 64.0299 29.6473   1
  -3   3   6 4.48924 63.2487   2
   3   3   6 223.695 88.8417   1
  -3  -3   6 133.449 95.2158   2
   3  -3   6 189.074 88.4065   1
  -3   3   6 99.0490 30.9021   1
   3   4   6-22.4337 75.0049   2
  -3   4   6-40.6227 55.0245   2
   3  -4   6-35.0043 82.4357   2
   3   4   6-8.64778 69.8545   1
  -3  -4   6-9.95380 71.7944   2
   3  -4   6-185.573 99.2992   1
   3   5   6 987.992 160.256   1
  -3   5   6 1232.43 170.081   2
   3  -5   6 950.190 174.314   2
  -3  -5   6 1009.67 194.369   2
   3  -5   6 749.408 156.351   1
  -3   6   6 2.78916 52.8067   2
   3  -6   6 54.8402 79.4474   2
  -3  -6   6-29.0538 75.9560   2
   3  -6   6-72.5957 78.3934   1
   3   6   6-32.7792 80.6442   1
  -3   7   6 829.400 137.405   2
   3  -7   6 813.965 166.977   2
  -3  -7   6 1061.98 201.733   2
   3   7   6 799.185 149.580   1
   3  -7   6 1088.85 203.428   1
   3  -8   6 461.308 157.938   1
   3  -8   6 389.245 118.570   2
  -3  -8   6 466.314 150.678   2
   3   8   6 368.986 104.198   1
   3  -9   6 315.284 120.182   2
   3  -9   6 150.662 114.426   1
  -3  -9   6 169.317 137.310   2
   3 -10   6 435.938 136.856   2
   3 -10   6 436.038 159.247   1
  -3 -10   6 453.445 148.353   2
  -3  10  -6 420.846 170.469   3
   3 -11   6-163.957 98.2104   2
   3 -11   6-38.7378 105.268   1
  -3 -11   6-129.898 114.360   2
  -3  11  -6 43.8318 120.754   3
   4   0   6 11270.3 545.802   1
   4   0   6 11066.5 424.465   3
   4   0   6 10703.4 549.570   2
  -4   0   6 10447.6 513.345   2
   4   1   6 187.211 102.953   2
   4  -1   6 154.773 100.475   2
  -4   1   6 264.547 100.394   2
  -4  -1   6 372.910 114.012   2
   4   1   6 88.6449 88.0878   1
   4  -1   6 369.921 90.3039   3
  -4   1   6 224.001 62.3411   1
   4   1   6 220.087 70.4992   3
   4  -1   6 284.407 112.779   1
   4   2   6 12008.6 561.079   1
   4  -2   6 13199.0 613.286   1
  -4   2   6 12551.8 353.376   1
   4   2   6 12453.9 601.204   2
   4  -2   6 11923.9 568.985   2
  -4   2   6 12316.3 525.625   2
  -4  -2   6 13386.6 612.559   2
  -4   2   6 12608.1 351.748   1
   4   3   6 1966.23 233.549   1
   4  -3   6 1859.33 235.335   2
   4  -3   6 1847.59 239.262   1
  -4   3   6 1747.18 99.0826   1
  -4  -3   6 1746.24 235.732   2
   4  -3  -6 1791.06 155.336   3
   4   3   6 2043.89 251.950   2
  -4   3   6 1872.63 207.868   2
  -4   3   6 1710.10 98.4418   1
   4   4   6 7874.66 450.800   1
   4  -4   6 8824.17 523.511   1
   4  -4  -6 8664.53 343.755   3
   4  -4   6 8668.94 489.977   2
  -4   4   6 8358.96 418.941   2
  -4  -4   6 8956.31 533.697   2
   4   5   6 1397.79 201.002   1
  -4   5   6 1160.72 168.600   2
   4  -5   6 1158.56 188.538   2
  -4  -5   6 920.848 189.343   2
   4  -5   6 1134.31 199.756   1
   4  -6   6 12582.6 659.502   1
  -4   6   6 13698.9 528.581   2
   4  -6   6 14296.3 631.306   2
  -4  -6   6 13799.2 695.487   2
   4   6   6 13655.9 607.958   1
  -4   7   6-13.0323 49.8734   2
   4  -7   6 0.53534 67.6181   2
  -4  -7   6-12.5029 90.2902   2
   4  -7   6 6.88144 70.3481   1
   4   7   6 129.368 87.9889   1
   4  -8   6 7453.29 541.720   1
   4  -8   6 6183.81 431.377   2
  -4  -8   6 6912.65 521.007   2
   4   8   6 6704.89 438.383   1
   4  -9   6 531.388 148.385   2
  -4  -9   6 479.580 157.008   2
   4   9   6 593.280 140.429   1
   4  -9   6 304.788 146.921   1
   4 -10   6 4404.76 449.436   1
   4 -10   6 4240.75 364.905   2
  -4 -10   6 4764.31 458.160   2
   5   0   6-25.8489 85.0089   2
  -5   0   6-108.452 80.3322   2
   5   0   6-19.4702 70.3241   1
   5   0   6 28.7559 56.0061   3
  -5   0   6 32.1558 39.1089   1
   5   1   6 49.0929 89.5674   2
   5  -1   6-41.7032 88.2129   2
  -5   1   6 209.345 85.6978   2
  -5  -1   6 152.812 86.0259   2
   5   1   6 67.6596 68.1333   1
   5  -1   6 256.599 87.0307   3
   5   1   6 52.2536 61.9824   3
   5  -1   6-154.239 89.1188   1
  -5   1   6 207.953 55.2516   1
   5   2   6 587.085 155.335   2
   5  -2   6 330.355 111.129   2
  -5   2   6 442.776 119.237   2
   5   2   6 463.291 126.671   1
  -5  -2   6 408.940 136.821   2
   5  -2   6 488.402 145.260   1
   5  -3   6 374.595 122.718   2
   5   3   6 742.249 160.553   1
  -5   3   6 480.927 110.812   2
  -5  -3   6 591.194 151.525   2
  -5   3   6 442.523 55.4800   1
   5  -3   6 615.725 159.549   1
   5  -4   6 698.842 174.560   1
   5  -4   6 530.657 135.200   2
   5   4   6 981.881 186.841   1
  -5   4   6 704.450 134.048   2
  -5  -4   6 576.309 156.534   2
   5  -5   6 1588.44 219.507   2
   5  -5   6 1893.56 268.183   1
  -5  -5   6 2019.17 275.661   2
  -5   5   6 1944.87 199.302   2
   5   5   6 2219.21 270.374   1
  -5   6   6 600.302 114.771   2
   5  -6   6 531.710 145.485   2
   5  -6   6 361.618 126.703   1
  -5  -6   6 516.040 162.816   2
   5   6   6 474.654 132.530   1
   5  -7   6-4.31551 63.4805   2
   5  -7   6-94.6018 115.673   1
  -5  -7   6-186.991 140.305   2
   5   7   6-74.2275 102.927   1
   5  -8   6-32.2199 66.3625   2
   5  -8   6-51.1954 106.266   1
  -5  -8   6 47.1754 87.4351   2
   5   8   6-161.527 122.243   1
   5  -9   6 34.8189 72.8317   2
  -5  -9   6-99.9247 116.054   2
   5  -9   6 64.1455 92.8213   1
   5   9   6-87.1745 105.102   1
   6   0   6 15279.6 720.341   1
   6   0   6 14471.6 681.015   2
  -6   0   6 15202.1 652.732   2
   6  -1   6 469.835 141.264   2
  -6   1   6 504.328 146.178   2
   6   1   6 302.922 126.437   1
  -6  -1   6 281.195 123.329   2
   6  -1   6 370.427 144.321   1
   6   2   6 16856.1 746.032   1
   6  -2   6 18001.8 790.683   1
   6  -2   6 15381.4 681.778   2
  -6   2   6 16828.7 636.498   2
  -6  -2   6 16415.1 726.073   2
   6  -3   6 811.317 174.418   2
   6   3   6 844.251 187.109   1
  -6   3   6 906.786 151.412   2
  -6  -3   6 1045.13 208.169   2
   6  -3   6 1164.87 225.996   1
   6  -4   6 5413.00 451.337   1
   6  -4   6 5298.04 400.452   2
  -6   4   6 4886.46 322.764   2
  -6  -4   6 5334.85 439.801   2
   6   4   6 5370.28 433.945   1
   6  -5   6 160.692 102.554   2
  -6   5   6 260.477 76.3376   2
  -6  -5   6 258.479 118.416   2
   6  -5   6 200.330 134.077   1
   6   5   6 334.342 165.739   1
   6  -6   6 5178.59 454.640   1
   6  -6   6 4740.18 377.211   2
  -6  -6   6 6200.17 503.094   2
   6   6   6 5375.18 439.949   1
   6  -7   6 73.8083 105.962   1
   6  -7   6 16.4196 70.4005   2
  -6  -7   6 14.3537 86.5363   2
   6   7   6 133.712 160.010   1
   6  -8   6 1583.83 270.163   1
  -6  -8   6 1356.11 262.199   2
   6   8   6 1402.22 251.950   1
   6   9   6 175.424 116.547   1
   7   0   6-58.1928 96.0379   1
  -7   0   6 6.90966 78.6849   2
  -7   1   6 53.6421 65.2235   2
  -7  -1   6-98.8389 107.411   2
   7  -1   6 123.058 124.223   1
   7   2   6-79.1136 79.7038   1
  -7   2   6-57.3867 64.4548   2
  -7  -2   6 80.2776 120.903   2
   7  -2   6-2.15601 96.9310   1
   7  -3   6 11.5359 79.8066   2
   7   3   6 23.6107 96.8046   1
  -7   3   6-2.20365 73.0244   2
  -7  -3   6 125.324 121.248   2
   7  -3   6 52.7803 93.4364   1
   7  -4   6 117.453 92.2513   2
  -7  -4   6 147.977 102.740   2
   7  -4   6 199.092 125.121   1
   7   4   6 95.7297 103.676   1
   7  -5   6 37.7214 94.6749   2
  -7  -5   6 173.651 94.2352   2
   7  -5   6-80.1920 120.747   1
   7   5   6 83.8107 94.6544   1
   7  -6   6 773.867 162.260   2
  -7  -6   6 454.154 155.104   2
   7  -6   6 574.202 193.427   1
   7   6   6 743.016 189.795   1
  -7  -7   6 146.819 113.581   2
   7   7   6 54.7741 96.6993   1
   7  -7   6 92.0842 120.190   1
   7   8   6-77.9467 95.3634   1
   7   9   6 117.534 111.754   1
   8   0   6 3467.38 389.622   1
  -8   0   6 3464.36 353.747   2
   8   1   6 74.0904 124.732   1
   8  -1   6-75.8379 107.430   1
  -8   1   6 76.4376 79.3600   2
  -8  -1   6-154.801 137.950   2
   8  -2   6 4875.92 459.164   1
  -8   2   6 4468.47 352.072   2
  -8  -2   6 4891.12 449.958   2
   8   2   6 4687.72 443.968   1
   8   3   6 7.03686 85.0893   1
  -8  -3   6 114.457 117.502   2
   8  -3   6 139.674 120.094   1
  -8  -4   6 2048.76 305.286   2
   8  -4   6 1971.46 298.601   1
   8   4   6 2114.86 311.690   1
  -8  -5   6 114.373 127.215   2
   8   5   6 102.781 111.109   1
  -9   0   6 233.299 131.052   2
  -9  -1   6 33.9907 104.330   2
  -9  -2   6 197.412 91.4596   2
  -9  -3   6-27.9191 92.5029   2
  -9  -4   6-93.5683 112.319   2
   0   0   7 95.5317 74.7300   2
   0   0   7-69.2811 64.6104   1
   0   1   7 99.3316 90.9264   2
   0  -1   7-31.7327 69.0858   2
   0   1   7 44.7800 52.4006   1
   0  -1   7 210.212 94.2246   1
   0   2   7-12.8151 70.4244   2
   0  -2   7-40.3684 69.4185   2
   0  -2   7 23.1160 51.6749   1
   0   2   7 23.8688 51.9126   1
   0   3   7 1095.21 185.583   2
   0  -3   7 632.606 156.091   2
   0  -3   7 552.887 131.623   1
   0   3   7 1018.81 136.613   1
   0   3  -7 450.582 91.4381   3
   0  -4   7-28.8655 78.4197   1
   0   4   7-74.0689 78.6251   2
   0  -4   7-34.5451 70.1455   2
   0   4   7 30.7928 39.4324   1
   0   4  -7 22.0279 48.9278   3
   0  -5   7 2405.63 280.067   1
   0   5  -7 2224.61 224.361   3
   0   5   7 2704.64 288.556   2
   0  -5   7 2505.31 292.168   2
   0   5   7 2646.78 191.208   1
   0   6   7-24.8541 69.9856   2
   0  -6   7 188.563 128.480   2
   0   6  -7-134.497 102.572   3
   0  -6   7 18.0936 69.0795   1
   0   6   7 61.5656 38.4929   1
   0   7   7 139.293 83.1319   2
   0  -7   7-18.7290 78.3550   1
   0  -7   7 98.5793 111.127   2
   0   7  -7 139.193 93.2884   3
   0  -8   7-54.9052 72.8821   2
   0   8  -7-227.978 107.874   3
   0  -9   7 78.0410 80.8202   2
   0  -9   7 110.251 120.461   1
   0   9  -7 81.5754 110.577   3
   0 -10   7 82.4890 114.138   2
   0  10  -7 56.4874 100.671   3
   0 -10   7-66.2892 104.740   1
   0 -11   7 174.542 95.2846   2
   0  11  -7 363.769 142.527   3
   1   0   7 10065.3 478.046   1
  -1   0   7 10466.2 450.612   1
   1   0   7 10779.2 558.160   2
  -1   0   7 10487.8 545.188   2
   1   1   7 267.005 116.125   2
   1  -1   7 181.541 95.3546   2
  -1   1   7 192.030 88.9500   2
  -1  -1   7 188.620 78.9179   2
  -1  -1   7 143.259 77.5426   1
  -1   1   7 254.257 77.3709   1
   1  -1   7 221.790 89.7399   1
   1   1   7 158.705 78.3138   1
   1   2   7 15371.2 551.560   1
  -1   2   7 14874.3 476.252   1
   1  -2   7 15618.1 628.087   1
  -1  -2   7 15901.3 606.490   1
   1   2  -7 15535.6 389.014   3
   1   2   7 15839.5 682.253   2
  -1   2   7 14971.2 646.064   2
   1  -2   7 15322.5 668.390   2
  -1  -2   7 15640.5 668.904   2
   1  -3   7 1299.97 194.328   1
   1   3   7 1249.86 202.427   2
  -1   3   7 1397.61 205.852   2
  -1   3   7 1428.35 139.845   1
   1  -3   7 1224.31 205.058   2
  -1  -3   7 1161.82 195.282   2
   1   3   7 1398.10 163.769   1
   1   3  -7 1179.50 135.230   3
  -1  -3   7 971.126 169.915   1
   1   4   7 6464.57 343.659   1
  -1   4   7 5611.64 249.599   1
   1  -4   7 5701.06 414.764   1
  -1  -4   7 5674.25 398.020   1
   1   4  -7 5137.59 305.737   3
   1   4   7 5835.20 417.207   2
  -1   4   7 5529.56 395.709   2
   1  -4   7 5754.96 428.011   2
  -1  -4   7 5767.16 431.587   2
   1   5   7 623.716 144.550   2
  -1  -5   7 623.645 153.783   1
   1   5   7 671.321 115.957   1
  -1   5   7 392.658 119.142   2
   1  -5   7 607.441 151.916   2
  -1  -5   7 659.070 164.520   2
   1  -5   7 700.850 166.897   1
   1   5  -7 285.781 94.3723   3
  -1   5  -7 274.103 99.1669   3
  -1   5   7 383.478 63.3768   1
   1  -6   7 28482.5 991.167   1
   1   6  -7 27612.7 833.537   3
  -1  -6   7 27973.3 962.096   1
  -1   6  -7 27920.4 839.090   3
   1   6   7 27005.9 916.183   2
  -1   6   7 28496.0 895.816   2
   1  -6   7 27029.7 948.477   2
  -1  -6   7 28199.0 988.893   2
   1   6   7 27014.9 668.951   1
  -1   7   7 969.747 175.910   2
   1  -7   7 917.319 196.642   2
  -1  -7   7 1252.25 224.707   2
  -1  -7   7 994.948 205.701   1
   1   7  -7 881.104 171.472   3
  -1   7  -7 713.393 159.195   3
   1   7   7 858.391 120.837   1
   1  -7   7 942.274 193.147   1
   1  -8   7 6898.09 524.632   1
   1   8  -7 6535.89 467.754   3
  -1   8  -7 7220.60 495.537   3
   1  -8   7 7549.82 523.623   2
  -1  -8   7 7145.35 524.231   2
   1  -9   7 69.3295 114.549   1
   1  -9   7-145.423 108.736   2
  -1  -9   7 10.3244 99.1257   2
   1   9  -7 220.758 128.161   3
  -1   9  -7 90.9421 97.1583   3
   1 -10   7 4051.41 433.027   1
   1  10  -7 3834.96 406.275   3
  -1  10  -7 3866.78 411.219   3
   1 -10   7 4270.91 410.503   2
  -1 -10   7 4294.19 426.631   2
   1 -11   7-69.7450 101.353   2
  -1 -11   7-92.3344 102.618   2
   1  11  -7 192.904 150.475   3
  -1  11  -7-114.218 136.964   3
   1 -12   7 2238.34 314.478   2
   2   0   7 55.6223 76.5402   1
   2   0   7 76.5901 67.9525   2
  -2   0   7 127.430 83.5822   2
  -2   0   7 88.4080 58.5404   1
   2   1   7 166.984 118.591   2
   2  -1   7 83.6785 92.3011   2
  -2   1   7-24.8517 68.4189   2
   2  -1   7-32.8795 85.1822   1
  -2  -1   7 75.1807 85.6551   2
  -2  -1   7 33.4437 49.7822   1
   2   1   7-17.5587 84.1985   1
  -2   1   7 82.1906 51.4882   1
   2   2   7 93.0814 102.139   2
   2  -2   7-195.661 99.6211   2
  -2   2   7 14.7941 74.3478   2
  -2  -2   7 67.6932 83.4176   2
  -2   2   7 137.250 53.9039   1
   2  -2   7-56.8051 94.8333   1
  -2  -2   7-1.71798 61.4111   1
   2   2   7 99.7788 85.2582   1
   2   3   7 174.544 99.0846   2
  -2   3   7-45.4097 86.0082   2
   2  -3   7 264.953 98.1077   2
  -2  -3   7 364.087 118.861   1
  -2  -3   7 266.893 106.992   2
   2   3   7 162.536 81.3773   1
   2  -3   7 290.254 112.373   1
  -2   3   7 115.637 46.5903   1
   2   4   7 183.930 86.9215   2
  -2   4   7 76.3867 80.9991   2
   2  -4   7 106.766 88.0974   2
   2   4   7 286.815 96.4100   1
  -2   4   7 188.562 43.7749   1
  -2  -4   7 114.606 102.838   2
   2  -4   7 219.294 102.094   1
   2   5   7 182.186 102.613   2
   2   5   7 34.3200 57.1354   1
  -2   5   7 117.371 86.4012   2
   2  -5   7-98.9790 101.318   2
  -2  -5   7 85.5595 88.6052   2
   2  -5   7 50.2465 85.7092   1
   2   6   7 378.277 139.899   2
  -2   6   7 468.631 135.273   2
   2  -6   7 603.447 179.078   1
   2  -6   7 326.816 124.527   2
  -2  -6   7 323.921 134.146   2
   2   6   7 334.153 99.0414   1
  -2   7   7 141.604 96.2352   2
   2  -7   7-26.2099 74.6609   2
   2  -7   7 12.1349 87.4344   1
  -2  -7   7 254.811 128.507   2
   2   7   7-24.1158 59.7462   1
  -2   8   7 36.7529 79.5716   2
   2  -8   7-327.423 127.481   2
  -2  -8   7 104.019 129.526   2
   2  -8   7-35.1326 116.102   1
  -2   8  -7-105.666 87.9340   3
   2  -9   7 32.2869 87.8752   2
  -2  -9   7 104.943 89.0668   2
   2  -9   7 23.6672 95.0134   1
  -2   9  -7-95.2780 103.970   3
   2 -10   7-59.0022 91.6209   2
  -2 -10   7 30.0399 101.668   2
  -2  10  -7-90.0926 115.220   3
   2 -11   7 48.3267 93.9415   2
  -2  11  -7-133.405 121.845   3
   3   0   7 18787.6 714.615   1
  -3   0   7 18467.3 573.404   1
   3   0   7 19357.8 770.863   2
  -3   0   7 19836.0 755.536   2
   3  -1   7 560.829 148.970   1
   3   1   7 778.198 172.161   2
   3  -1   7 742.292 164.313   2
  -3   1   7 678.082 153.920   2
  -3  -1   7 549.107 147.588   2
  -3   1   7 473.679 90.5863   1
  -3  -1   7 783.410 134.987   1
   3   1   7 656.662 148.238   1
   3   2   7 14815.2 614.411   1
   3  -2   7 13621.0 638.310   1
  -3   2   7 14580.2 417.500   1
   3   2   7 15819.4 713.952   2
   3  -2   7 14426.6 667.500   2
  -3   2   7 14566.3 625.383   2
  -3  -2   7 14477.6 670.322   2
   3   3   7 2122.06 273.462   2
   3   3   7 2271.51 245.700   1
   3  -3   7 1839.16 247.437   2
  -3   3   7 1950.54 129.592   1
   3  -3   7 2556.03 285.986   1
  -3  -3   7 2062.23 267.508   2
  -3   3   7 2065.50 249.326   2
   3   4   7 3603.69 302.187   1
   3  -4   7 3656.48 349.169   1
   3   4   7 3568.69 347.264   2
  -3   4   7 3311.25 302.472   2
   3  -4   7 3788.97 349.458   2
  -3  -4   7 3318.42 340.103   2
   3  -5   7 6032.33 463.546   1
   3   5   7 6673.89 485.836   2
  -3   5   7 6606.34 416.395   2
   3  -5   7 6247.87 450.628   2
  -3  -5   7 5702.11 454.745   2
   3   5   7 6761.30 409.100   1
   3  -6   7 9881.52 604.926   1
  -3   6   7 9543.89 497.882   2
   3  -6   7 8814.53 544.747   2
  -3  -6   7 9111.99 589.047   2
   3   6   7 9619.41 492.505   1
  -3   7   7 99.6869 75.2424   2
   3  -7   7 90.5930 102.473   2
  -3  -7   7 59.2668 106.625   2
   3   7   7 104.968 84.7884   1
   3  -7   7-93.8418 128.357   1
  -3  -8   7 2324.81 320.399   2
  -3   8   7 2490.46 261.553   2
   3  -8   7 3237.30 343.588   2
   3   8   7 2210.05 237.328   1
   3  -8   7 2770.46 351.524   1
   3  -9   7 101.981 75.1705   2
  -3  -9   7-101.346 115.282   2
   3  -9   7 5.06796 80.7845   1
   3 -10   7 2834.97 332.774   2
   3 -11   7 28.2139 106.488   2
   4   0   7 1197.19 209.217   2
  -4   0   7 1018.04 180.049   2
   4   0   7 1116.10 194.536   1
   4   1   7-199.367 107.893   2
   4  -1   7-2.40386 83.0633   2
  -4   1   7-110.141 78.3056   2
  -4  -1   7-4.06162 86.5716   2
  -4   1   7-14.3814 37.4308   1
   4  -1   7-36.6283 77.1882   1
   4   2   7 422.401 135.977   2
   4  -2   7 108.799 87.6806   2
  -4   2   7 158.356 54.9425   1
  -4   2   7 122.669 75.4178   2
  -4  -2   7 307.788 115.268   2
   4   2   7 202.924 102.799   1
   4  -2   7 147.936 105.217   1
   4   3   7 79.0133 99.4950   2
   4  -3   7-26.8874 79.6440   1
   4  -3   7-22.8146 71.4930   2
  -4   3   7 120.217 79.4067   2
   4   3   7-83.6014 100.296   1
  -4  -3   7 114.755 88.0626   2
   4   4   7 490.891 145.743   2
   4  -4   7 260.859 111.460   2
   4   4   7 329.906 117.971   1
  -4   4   7 274.963 103.437   2
   4  -4   7 166.593 104.954   1
  -4  -4   7 385.711 153.369   2
   4   5   7-9.67343 88.2421   1
  -4   5   7-106.577 84.8395   2
   4  -5   7 48.9007 85.2066   1
  -4  -5   7 119.964 114.632   2
  -4   6   7 609.257 136.207   2
   4  -6   7 841.625 181.770   2
  -4  -6   7 802.600 197.638   2
   4  -6   7 940.359 205.694   1
   4   6   7 603.750 143.418   1
  -4   7   7-124.701 75.7380   2
   4  -7   7-90.9617 89.8058   2
  -4  -7   7 33.7988 88.9971   2
   4  -7   7 58.9841 87.9014   1
   4   7   7-23.7191 71.1859   1
   4  -8   7-120.465 92.5077   2
  -4  -8   7 139.205 142.158   2
   4  -8   7 53.6231 118.356   1
   4   8   7-104.761 76.3551   1
   4  -9   7 108.851 69.0924   2
   5   0   7 14587.2 702.399   1
   5   0   7 13528.5 681.734   2
  -5   0   7 13836.5 658.026   2
   5   1   7 146.651 99.1924   2
   5  -1   7 154.577 105.076   2
  -5   1   7 400.566 137.921   2
  -5  -1   7 379.733 131.648   2
   5   1   7 339.821 147.510   1
   5  -1   7 259.366 123.020   1
   5   2   7 10491.0 587.792   1
   5  -2   7 10810.8 615.868   1
   5   2   7 10470.4 615.171   2
   5  -2   7 10295.1 590.381   2
  -5   2   7 10702.8 546.433   2
  -5  -2   7 10635.3 605.652   2
   5  -3   7 1437.16 235.004   2
  -5   3   7 1665.73 220.302   2
   5   3   7 1210.06 219.005   1
  -5  -3   7 1766.21 264.195   2
   5  -3   7 1734.75 265.517   1
   5  -4   7 6407.82 497.891   1
   5  -4   7 6283.98 465.045   2
  -5   4   7 6662.86 415.124   2
  -5  -4   7 6678.14 508.387   2
   5   4   7 6255.25 457.739   1
   5  -5   7 2.21242 105.825   1
   5  -5   7 126.324 118.130   2
  -5   5   7 155.969 74.7193   2
  -5  -5   7 177.288 119.422   2
   5   5   7 64.2764 98.5901   1
   5  -6   7 8319.90 587.411   1
   5  -6   7 7287.58 502.444   2
  -5  -6   7 6784.48 540.857   2
   5   6   7 7174.30 495.842   1
   5  -7   7 911.517 192.639   2
   5  -7   7 1118.03 244.007   1
  -5  -7   7 1059.03 229.867   2
   5   7   7 1413.81 247.968   1
   5  -8   7 3252.85 340.830   2
   5   8   7 3323.71 351.114   1
   5   9   7-131.679 105.539   1
   6   0   7 248.463 112.755   2
  -6   0   7 271.218 131.213   2
   6   0   7 586.372 180.974   1
   6  -1   7 220.180 109.608   2
  -6   1   7 51.2937 93.2451   2
  -6  -1   7 20.7159 108.506   2
   6   1   7 22.8070 92.4130   1
   6  -1   7 16.2904 89.7814   1
   6  -2   7 41.5271 78.6609   2
  -6   2   7 111.760 84.0187   2
   6   2   7 344.158 148.547   1
  -6  -2   7 155.082 152.028   2
   6  -2   7-169.407 135.526   1
   6  -3   7 6.55291 82.4889   2
   6   3   7 233.939 138.096   1
  -6   3   7 156.729 95.5831   2
  -6  -3   7 124.942 114.365   2
   6  -3   7 176.613 114.819   1
   6   4   7 283.538 166.832   1
   6  -4   7 171.024 107.716   2
  -6   4   7 24.0340 55.3169   2
  -6  -4   7-44.7790 92.7534   2
   6  -4   7 161.301 105.429   1
   6  -5   7 169.074 99.8272   2
  -6  -5   7-79.3628 105.367   2
   6  -5   7 225.101 136.888   1
   6   5   7 452.217 194.129   1
   6  -6   7-105.611 97.4080   2
  -6  -6   7 34.0325 98.5180   2
   6   6   7 85.7216 151.432   1
   6  -6   7 365.081 153.798   1
   6  -7   7 3.91495 70.6479   2
   6   7   7 364.094 161.686   1
   6   8   7 5.17286 98.5189   1
   6   9   7-311.894 137.900   1
   7   0   7 7064.64 541.581   1
  -7   0   7 6267.53 476.225   2
   7   1   7 172.797 140.568   1
  -7   1   7 130.048 116.000   2
  -7  -1   7-70.6692 106.738   2
   7  -1   7-14.1663 123.791   1
   7   2   7 3597.84 393.661   1
   7  -2   7 4475.20 448.023   1
   7  -2   7 3903.40 394.607   2
  -7   2   7 3847.34 345.417   2
  -7  -2   7 3637.02 388.684   2
   7  -3   7 220.787 126.284   2
   7   3   7 568.257 168.415   1
  -7   3   7 402.917 124.970   2
  -7  -3   7 339.950 154.348   2
   7  -3   7 797.544 210.638   1
   7   4   7 2751.04 346.707   1
   7  -4   7 2671.04 322.115   2
  -7  -4   7 2786.19 362.362   2
   7  -4   7 2423.49 341.627   1
   7  -5   7 197.609 109.823   2
  -7  -5   7 319.267 150.983   2
   7   5   7 126.245 104.467   1
   7  -6   7 1531.72 254.220   2
   7   6   7 1185.73 245.135   1
   7   7   7 70.3157 100.858   1
  -8   0   7 187.858 137.058   2
  -8   1   7-140.087 104.169   2
  -8  -1   7 58.1794 128.192   2
  -8  -2   7 63.4344 114.499   2
  -8  -3   7 38.7987 109.976   2
  -9  -1   7 163.183 138.421   2
  -9  -2   7 1189.02 238.765   2
   0   0   8 14549.7 590.295   1
   0   0   8 13433.0 674.900   2
   0   1   8-65.8035 62.7249   1
   0   1   8 98.7026 106.259   2
   0  -1   8 110.664 109.176   2
   0  -1   8-9.22441 75.5393   1
   0   2   8 6382.17 361.180   1
   0  -2   8 6949.43 443.038   1
   0   2   8 6910.05 485.856   2
   0  -2   8 6869.42 489.682   2
   0   3   8 22.7028 95.2790   2
   0  -3   8 35.1293 86.5829   1
   0  -3   8-53.0227 97.7997   2
   0   3   8 42.2800 62.1187   1
   0   4   8 4770.80 284.390   1
   0  -4   8 4798.96 398.993   1
   0   4   8 4675.42 404.159   2
   0  -4   8 4335.64 407.288   2
   0   5   8-81.9419 106.982   2
   0  -5   8 79.3873 90.2577   2
   0   5  -8-34.5170 47.1164   3
   0  -5   8-34.3352 88.1084   1
   0  -6   8 10782.5 637.723   1
   0   6  -8 10730.7 519.785   3
   0   6   8 11216.8 627.341   2
   0  -6   8 10687.7 645.928   2
   0  -7   8 84.0235 84.5343   1
   0  -7   8 196.500 122.608   2
   0   7  -8 41.5651 66.5084   3
   0  -8   8 3657.50 395.911   1
   0   8  -8 3740.17 358.911   3
   0  -8   8 4128.62 423.748   2
   0  -9   8 3.27044 69.0275   2
   0   9  -8-32.3214 79.4552   3
   0  10  -8 1643.88 276.522   3
   0  11  -8-307.421 139.557   3
   1   0   8 908.665 165.698   1
   1   0   8 1346.53 224.877   2
  -1   0   8 1035.89 195.067   2
  -1   0   8 1173.33 166.199   1
   1   1   8 558.162 159.894   2
   1  -1   8 412.286 119.730   2
  -1   1   8 460.637 148.764   2
  -1  -1   8 368.389 128.990   2
  -1   1   8 283.763 88.7055   1
   1  -1   8 280.983 108.986   1
   1   1   8 190.561 91.6117   1
  -1  -1   8 256.907 84.0937   1
   1   2   8 550.321 159.737   2
  -1   2   8 670.652 164.784   2
   1  -2   8 766.746 178.993   2
  -1  -2   8 335.086 111.469   2
  -1  -2   8 346.649 110.162   1
   1  -2   8 575.466 153.274   1
   1   2   8 559.964 123.199   1
  -1   2   8 545.195 102.173   1
   1   3   8 929.995 195.662   2
  -1   3   8 629.485 164.721   2
   1  -3   8 823.260 184.868   2
  -1  -3   8 853.898 187.254   2
   1   3   8 828.056 139.110   1
  -1   3   8 630.659 103.113   1
  -1  -3   8 467.938 128.672   1
   1  -3   8 1059.97 196.389   1
   1   4   8 255.864 126.725   2
  -1   4   8 256.117 127.031   2
  -1  -4   8 259.223 111.936   1
   1  -4   8 205.807 116.360   2
  -1  -4   8 207.773 107.118   2
   1   4   8 204.280 83.4098   1
   1   4  -8 16.9489 43.8744   3
   1  -4   8 386.415 136.916   1
   1   5   8-65.5861 112.457   2
  -1   5   8-32.2671 97.0357   2
   1   5   8-1.09288 49.4866   1
   1  -5   8 40.6929 99.8894   1
   1  -5   8-68.0843 74.2062   2
  -1  -5   8 84.1182 107.968   2
  -1  -5   8-19.9888 103.806   1
   1   5  -8 78.2601 67.5433   3
   1   6   8 43.4751 109.451   2
  -1   6   8-89.0119 105.061   2
   1  -6   8-51.3954 94.2574   2
  -1  -6   8-34.2991 66.0164   2
   1  -6   8-17.4268 108.830   1
   1   6  -8-50.0315 66.4011   3
  -1  -6   8 86.5834 122.333   1
  -1   7   8 159.457 131.691   2
  -1  -7   8 122.673 115.281   1
   1  -7   8-74.1790 98.2950   2
  -1  -7   8 22.5170 101.399   2
   1  -7   8-12.4466 91.2119   1
   1   7  -8 112.336 80.0735   3
  -1   7  -8 19.2230 45.7090   3
   1  -8   8 9.26918 99.3781   2
  -1  -8   8-5.66453 97.3411   2
  -1  -8   8 103.737 111.209   1
   1  -8   8 185.259 93.6190   1
   1   8  -8 121.049 95.1604   3
  -1   8  -8-243.676 112.677   3
   1  -9   8 4.78697 114.931   2
   1   9  -8 168.873 111.347   3
  -1   9  -8 158.194 103.640   3
   1  10  -8-81.5979 123.939   3
  -1  10  -8-114.389 104.391   3
   1  11  -8 414.770 163.931   3
  -1  11  -8 437.643 161.522   3
   2   0   8 22567.6 798.721   1
  -2   0   8 20973.3 670.806   1
   2   0   8 21133.3 859.056   2
  -2   0   8 22410.2 865.477   2
   2   1   8 268.173 115.861   2
   2  -1   8 36.7874 80.1316   1
   2  -1   8 60.5473 91.0576   2
  -2   1   8 134.378 99.6996   2
  -2  -1   8 163.735 105.010   2
  -2  -1   8 223.726 95.3194   1
  -2   1   8 218.929 75.9674   1
   2   1   8 125.376 86.2831   1
   2   2   8 12164.8 562.374   1
  -2   2   8 12414.5 442.408   1
   2  -2   8 13573.1 649.216   1
  -2  -2   8 12232.5 568.166   1
   2   2   8 12834.1 675.068   2
   2  -2   8 11946.6 651.000   2
  -2   2   8 12854.4 641.568   2
  -2  -2   8 12150.6 657.585   2
   2   3   8 353.406 146.405   2
  -2   3   8 234.313 116.841   2
   2  -3   8 449.030 146.484   2
  -2  -3   8 317.524 146.402   2
   2   3   8 363.680 113.558   1
   2  -3   8 111.770 90.0006   1
  -2  -3   8 185.232 96.1922   1
   2   4   8 5378.49 362.444   1
   2  -4   8 5240.46 439.858   1
  -2  -4   8 4902.92 400.710   1
   2   4   8 6306.26 481.813   2
  -2   4   8 5663.81 430.252   2
   2  -4   8 5538.36 454.491   2
  -2  -4   8 6549.23 501.408   2
   2   5   8 81.6526 107.568   2
   2   5   8 94.6105 68.7473   1
  -2   5   8-95.8854 110.898   2
   2  -5   8-94.2782 94.8494   2
  -2  -5   8-4.42471 80.7444   2
   2  -5   8 129.279 114.902   1
  -2  -5   8 189.318 138.565   1
   2  -6   8 8534.06 587.199   1
  -2  -6   8 7961.20 549.370   1
   2   6   8 8080.89 560.840   2
  -2   6   8 8724.08 527.974   2
   2  -6   8 7827.89 552.040   2
  -2  -6   8 8732.44 597.568   2
  -2   7   8 3.03285 79.7726   2
   2  -7   8 144.780 126.360   2
  -2  -7   8 105.064 100.144   1
   2  -7   8 185.961 125.431   1
  -2   8   8 2343.10 285.422   2
   2  -8   8 2424.12 344.054   1
   2  -8   8 1959.41 289.143   2
  -2  -8   8 2411.69 330.606   2
  -2  -8   8 2373.81 324.314   1
   2  -9   8 77.8340 86.8971   2
   2   9  -8-219.514 113.860   3
   2 -10   8 2056.98 311.791   2
   2  10  -8 2165.31 317.121   3
   3   0   8 2959.73 311.419   1
  -3   0   8 2873.82 249.484   1
   3   0   8 3130.79 350.143   2
  -3   0   8 2814.53 314.476   2
   3   1   8 54.9784 92.9129   2
   3  -1   8 25.8195 95.1954   2
  -3   1   8-22.2962 89.1269   2
  -3  -1   8 82.2833 75.5834   1
  -3  -1   8-44.7404 101.774   2
   3   1   8-47.1583 79.8839   1
  -3   1   8 85.9541 56.6678   1
   3  -1   8-58.6262 80.2744   1
   3  -2   8 2239.86 291.062   1
   3  -2   8 2256.98 292.274   2
  -3  -2   8 1781.20 222.207   1
  -3  -2   8 2164.04 291.516   2
   3   2   8 2117.76 255.932   1
   3   2   8 2435.84 317.089   2
  -3   2   8 2574.26 294.136   2
   3   3   8 382.291 155.073   2
   3  -3   8 66.5860 95.6336   2
  -3   3   8 96.3795 81.8523   2
  -3  -3   8 164.315 86.8497   1
   3  -3   8 138.941 88.1183   1
  -3  -3   8 196.640 104.389   2
   3   3   8 220.840 111.497   1
   3   4   8 114.155 98.6957   2
  -3   4   8-18.9729 93.4038   2
   3  -4   8 188.718 108.402   2
   3   4   8 68.5885 104.353   1
  -3  -4   8-83.7175 129.125   2
   3  -4   8 34.0306 103.861   1
  -3  -4   8 138.166 111.274   1
   3   5   8 296.818 139.321   2
   3   5   8 266.133 93.7351   1
  -3   5   8 138.306 97.8443   2
   3  -5   8 56.1812 69.6936   2
  -3  -5   8 63.2825 105.210   2
   3  -5   8 210.002 112.080   1
  -3   6   8 383.685 132.167   2
   3  -6   8 366.178 142.365   2
  -3  -6   8 1.58988 74.5654   2
   3  -6   8 231.964 85.8626   1
   3   6   8 307.654 103.617   1
  -3   7   8 79.2931 77.8430   2
   3  -7   8 274.312 135.967   2
  -3  -7   8-44.9834 103.048   2
   3  -7   8 60.4390 88.8149   1
   3  -8   8 884.319 212.847   2
   3  -9   8 117.838 114.070   2
   3 -10   8 100.288 107.411   2
   4   0   8 4363.10 398.582   1
  -4   0   8 4974.33 319.686   1
   4   0   8 5405.47 451.584   2
  -4   0   8 4466.53 403.068   2
   4   1   8 99.0844 99.8889   2
   4  -1   8 184.597 105.260   2
  -4   1   8 177.371 107.044   2
  -4  -1   8-6.08323 115.717   2
   4   1   8 184.254 113.843   1
  -4  -1   8 182.680 79.7921   1
   4  -1   8 346.540 161.499   1
   4   2   8 5505.49 436.084   1
   4  -2   8 5081.99 438.851   1
  -4  -2   8 5180.66 375.457   1
   4   2   8 5538.39 465.807   2
   4  -2   8 5320.19 452.303   2
  -4   2   8 5112.07 412.560   2
  -4  -2   8 5659.56 467.332   2
   4  -3   8 211.169 127.150   1
   4   3   8-25.1904 90.8257   2
   4  -3   8 234.877 118.496   2
  -4   3   8 298.248 130.248   2
   4   3   8-56.8750 94.3813   1
  -4  -3   8-35.9243 93.2041   2
   4   4   8 3606.97 344.571   1
   4  -4   8 3248.18 363.641   1
   4   4   8 3687.96 392.055   2
   4  -4   8 3827.28 387.862   2
  -4   4   8 3166.52 320.825   2
  -4  -4   8 3621.96 382.567   2
   4   5   8-68.1392 87.3495   1
  -4   5   8 7.98755 75.4380   2
   4  -5   8-14.5316 86.7798   2
   4  -5   8 18.6232 69.5843   1
  -4  -5   8 236.503 127.943   2
   4  -6   8 7183.00 566.915   1
  -4   6   8 7768.55 483.123   2
   4  -6   8 7317.93 540.967   2
  -4  -6   8 7393.93 574.003   2
   4   6   8 6869.31 468.845   1
   4  -7   8 135.666 112.547   2
   4  -8   8 3373.39 373.988   2
   4  -9   8 95.9083 90.1669   2
   5   0   8 285.907 137.765   2
  -5   0   8 324.704 175.762   2
   5   0   8 20.4258 101.045   1
   5   1   8-105.109 119.730   2
   5  -1   8-16.9235 120.819   2
  -5   1   8-10.9176 103.220   2
  -5  -1   8 85.0714 106.550   2
   5   1   8-40.9356 101.821   1
   5  -1   8-103.175 106.032   1
   5   2   8 53.7749 97.4794   2
   5  -2   8 163.360 109.241   2
  -5   2   8 120.039 107.816   2
  -5  -2   8 175.236 112.334   2
   5  -2   8 322.210 133.306   1
   5  -3   8 209.397 111.454   2
  -5   3   8 222.006 128.981   2
   5   3   8 178.841 167.390   1
  -5  -3   8-16.7917 102.975   2
   5  -3   8 85.5526 95.2235   1
   5  -4   8 92.4467 102.175   2
   5   4   8 256.448 149.374   1
  -5   4   8-43.0635 90.5547   2
  -5  -4   8-164.944 125.239   2
   5  -4   8-21.4066 87.5963   1
   5   5   8 219.490 121.928   1
   5  -5   8 32.2123 83.2337   1
   5  -5   8-127.158 114.634   2
  -5   5   8 40.3657 64.9563   2
  -5  -5   8 28.4828 95.2919   2
   5  -6   8 88.7074 97.8330   2
   5   6   8 35.4464 116.114   1
   5  -7   8 48.4982 84.3633   2
   5   7   8 21.6286 101.975   1
   5  -8   8 174.721 101.396   2
   6   0   8 2891.01 353.489   2
   6   0   8 2789.09 350.086   1
  -6   0   8 2808.32 345.686   2
   6   1   8 151.122 117.307   2
   6  -1   8 81.5059 109.425   2
  -6   1   8 27.9309 130.605   2
  -6  -1   8 353.391 149.703   2
   6   1   8 167.265 120.990   1
   6  -1   8 157.229 131.626   1
   6   2   8 4289.03 418.056   1
   6  -2   8 5093.21 474.177   1
   6  -2   8 4688.19 441.708   2
  -6   2   8 3786.44 366.946   2
  -6  -2   8 4437.33 431.424   2
   6  -3   8-8.36277 66.6137   2
   6   3   8 173.467 120.831   1
  -6   3   8 311.140 137.441   2
  -6  -3   8 245.942 134.999   2
   6  -3   8 408.667 182.378   1
   6  -4   8 2842.64 350.182   2
   6   4   8 2724.91 337.660   1
  -6  -4   8 2285.59 334.663   2
   6  -5   8-101.473 98.9511   2
   6   5   8-47.1449 126.847   1
   6  -6   8 3792.00 394.972   2
   6   6   8 3183.39 363.494   1
   6  -7   8 11.5067 88.3744   2
   6   7   8 297.595 144.068   1
  -7   0   8-55.0091 96.3464   2
  -7   1   8 72.2448 119.496   2
  -7  -1   8 87.0891 97.0078   2
   7  -2   8 42.1531 83.4690   2
  -7   2   8 94.1509 93.9039   2
  -7  -2   8 228.270 106.190   2
   7  -3   8-42.9957 117.666   2
   7  -4   8 99.2043 105.153   2
   7  -5   8-34.3118 108.109   2
  -8   0   8 1085.79 235.828   2
  -8  -1   8 113.809 107.491   2
   0   0   9-136.325 105.758   2
   0   0   9-71.7003 74.2047   1
   0   1   9 965.188 219.066   2
   0  -1   9 703.513 182.757   2
   0  -1   9 747.756 165.478   1
   0   1   9 575.079 129.028   1
   0   2   9 40.6630 102.248   2
   0  -2   9-61.5332 80.2450   2
   0  -2   9 38.8685 87.6332   1
   0   2   9-28.5438 51.2002   1
   0   3   9 426.179 137.928   2
   0  -3   9 585.053 169.528   2
   0  -3   9 563.124 171.086   1
   0   4   9-71.4471 94.2927   2
   0  -4   9-63.7562 116.902   2
   0  -4   9 7.60661 144.820   1
   0   5   9 9.02465 84.8900   2
   0  -5   9-25.2757 97.2226   1
   0  -5   9 70.3811 101.738   2
   0   6   9-112.432 137.164   2
   0  -6   9-275.876 136.107   2
   0  -6   9 61.9937 92.4206   1
   0   7   9 298.246 148.260   2
   1   0   9 7120.70 461.960   1
  -1   0   9 7043.90 430.223   1
   1   0   9 7403.35 543.757   2
  -1   0   9 7227.15 538.458   2
  -1   1   9-36.5524 79.8776   1
   1   1   9-1.50879 78.6706   2
   1  -1   9 43.1845 111.778   2
  -1   1   9-58.8329 109.237   2
  -1  -1   9 107.140 113.001   2
   1  -1   9 54.9830 113.732   1
  -1  -1   9 61.7437 81.7586   1
   1   1   9-10.4328 61.0442   1
   1   2   9 10484.3 523.757   1
   1  -2   9 10665.6 599.011   1
  -1  -2   9 10888.4 579.600   1
   1   2   9 10732.7 654.716   2
  -1   2   9 11674.5 677.174   2
   1  -2   9 10533.9 656.214   2
  -1  -2   9 9983.75 638.125   2
   1   3   9-46.4576 87.8201   2
  -1   3   9 146.242 127.566   2
   1  -3   9 274.700 179.385   2
  -1  -3   9 185.455 145.375   1
  -1  -3   9 49.0581 91.5011   2
   1   3   9 8.70735 66.7697   1
   1  -3   9 60.1439 134.060   1
   1   4   9 2569.15 332.820   2
  -1   4   9 2629.38 330.029   2
   1  -4   9 2549.37 334.421   2
  -1  -4   9 2832.45 344.831   2
  -1  -4   9 2525.01 312.500   1
   1  -4   9 2117.28 299.787   1
   1   5   9 144.559 129.961   2
  -1   5   9-108.907 102.925   2
   1  -5   9 26.8651 97.4580   2
  -1  -5   9-16.5065 97.7609   2
  -1  -5   9 24.8514 105.092   1
   1  -5   9-74.4182 115.868   1
   1  -6   9 4560.22 449.172   1
  -1  -6   9 4609.32 441.829   1
   1   6   9 5268.26 473.221   2
  -1   6   9 4895.69 441.821   2
   1  -6   9 4125.23 436.076   2
   1   7   9-29.1752 98.2061   2
  -1   7   9 44.7652 108.554   2
  -1  -7   9 149.367 132.227   1
  -1   8   9 1273.31 239.760   2
   2   0   9-63.9569 101.926   2
  -2   0   9 82.8009 87.4817   2
  -2   0   9-32.0302 68.5577   1
   2   0   9 181.171 135.858   1
   2  -1   9-106.963 107.753   1
   2   1   9 26.2253 89.1177   2
   2  -1   9 66.5384 90.5461   2
  -2   1   9 5.06416 81.6977   2
  -2  -1   9 6.01083 103.043   2
   2   1   9-80.1398 87.9072   1
  -2  -1   9 24.4815 71.7307   1
   2   2   9 235.972 130.298   2
   2  -2   9 111.380 97.3931   2
  -2   2   9 87.9624 104.678   2
   2  -2   9 344.317 165.470   1
  -2  -2   9 174.173 120.936   2
  -2  -2   9 208.814 98.7919   1
   2   2   9 346.767 125.456   1
   2   3   9 640.896 191.340   2
  -2   3   9 380.134 150.094   2
   2  -3   9 111.145 109.035   2
  -2  -3   9 346.217 131.856   2
   2  -3   9 414.908 170.160   1
   2   3   9 115.324 85.0262   1
  -2  -3   9 301.704 126.888   1
   2   4   9 78.8682 88.2562   2
  -2   4   9 150.888 118.368   2
   2  -4   9 2.40800 102.570   2
  -2  -4   9-43.8513 103.118   2
   2  -4   9-36.5139 104.261   1
  -2  -4   9-53.4778 104.811   1
   2   5   9 1824.72 291.414   2
  -2   5   9 1348.82 270.879   2
   2  -5   9 1698.18 289.302   2
  -2  -5   9 1037.17 239.776   2
  -2  -5   9 974.881 220.872   1
   2  -5   9 1113.25 231.419   1
   2   6   9-2.49188 128.633   2
  -2   6   9 333.277 149.267   2
   2  -6   9-63.9722 83.2306   2
  -2  -6   9 295.781 150.840   1
   2  -6   9 143.933 98.2071   1
  -2   7   9-65.5182 101.176   2
  -2  -7   9 12.3812 103.619   1
   3   0   9 3981.23 384.086   1
   3   0   9 4803.11 458.909   2
  -3   0   9 4734.07 438.239   2
   3   1   9-182.169 122.000   2
   3  -1   9 14.1828 76.1666   2
  -3   1   9-155.762 120.652   2
  -3  -1   9 38.7910 86.1457   2
  -3  -1   9 196.015 87.7437   1
   3   1   9 49.4449 97.9387   1
   3  -1   9-218.960 157.466   1
   3   2   9 7009.33 488.955   1
   3  -2   9 7447.21 538.378   1
  -3  -2   9 7019.27 457.541   1
   3   2   9 7028.48 554.274   2
   3  -2   9 6420.09 524.138   2
  -3   2   9 7020.43 517.856   2
  -3  -2   9 7911.52 574.195   2
   3   3   9 940.270 223.001   2
   3  -3   9 688.690 168.104   1
   3  -3   9 797.347 204.519   2
  -3   3   9 814.830 214.074   2
  -3  -3   9 1131.80 233.576   2
  -3  -3   9 923.788 195.634   1
   3   3   9 943.783 184.404   1
   3   4   9 3699.10 339.458   1
   3  -4   9 3826.78 411.430   1
  -3  -4   9 3537.07 364.041   1
   3   4   9 3912.66 417.378   2
  -3   4   9 3881.92 392.753   2
   3  -4   9 3868.64 416.553   2
  -3  -4   9 3586.58 400.171   2
  -3   5   9 41.5148 129.584   2
   3  -5   9 44.2748 94.3496   2
   3  -5   9-35.4869 108.108   1
  -3  -5   9-123.358 140.517   1
  -3  -6   9 4704.17 444.092   1
  -3   6   9 5461.68 451.095   2
   3  -6   9 5568.05 503.100   2
   4   0   9 85.5208 88.8642   2
  -4   0   9-12.8597 86.2956   2
   4   0   9 237.449 149.629   1
   4   1   9 157.362 105.724   2
   4  -1   9 29.4774 92.6599   2
  -4   1   9 310.415 135.699   2
  -4  -1   9-148.619 143.430   2
   4   1   9 88.0761 151.660   1
   4  -1   9 241.436 130.896   1
   4   2   9 118.606 115.762   2
   4  -2   9 174.180 136.257   2
  -4   2   9 311.616 146.089   2
  -4  -2   9-89.8274 125.449   2
   4   2   9 253.293 149.752   1
   4  -2   9 46.7520 88.8601   1
   4  -3   9 174.488 117.697   2
  -4   3   9 354.930 143.602   2
  -4  -3   9 342.348 117.875   1
   4   3   9 515.152 171.887   1
  -4  -3   9 449.022 163.116   2
   4  -3   9 505.318 176.666   1
  -4  -4   9 158.803 104.158   1
   4  -4   9 213.098 134.380   1
   4  -4   9 389.646 164.496   2
  -4   4   9 23.3440 94.6192   2
   4   4   9 266.485 142.876   1
   4   5   9 105.115 101.464   1
  -4   5   9 164.529 122.052   2
   4  -5   9 107.505 103.640   2
  -4  -5   9 6.62300 90.9250   1
  -5   0   9 1192.64 234.294   2
   5   0   9 859.192 208.264   1
  -5   1   9 12.0211 91.2048   2
  -5  -1   9 160.558 116.768   2
   5   1   9 79.7275 82.9650   1
   5  -1   9-126.660 125.610   1
  -5   2   9 1936.17 287.726   2
  -5  -2   9 2282.05 335.770   2
   5   2   9 1966.45 301.921   1
   5  -2   9 1841.81 291.781   1
  -5   3   9 338.529 147.111   2
   5   3   9 44.0743 82.4258   1
   5   4   9 2359.18 315.461   1
  -5   4   9 2055.68 284.133   2
   5   5   9 174.042 95.9373   1
  -6   0   9 49.9454 87.6547   2
  -6   1   9-69.6086 100.263   2
  -6   2   9-77.2169 79.0972   2
   0  -1  10-137.624 127.857   1
   0  -2  10 6101.86 475.692   1
   0  -3  10 2.89316 84.1425   1
   0  -4  10 4551.94 436.620   1
   1   0  10 395.592 137.608   1
   1  -1  10 30.0293 111.629   1
   1  -2  10 419.845 168.085   1
  -1  -2  10 27.2669 117.847   1
   1  -3  10-52.6880 118.435   1
  -1  -3  10 347.457 156.547   1
   1  -4  10-173.993 118.517   1
  -1  -4  10 236.401 124.648   1
  -1  -5  10 423.871 167.891   1
   2   0  10 1358.28 235.681   1
   2   1  10 297.722 126.070   1
   2  -1  10-5.00415 83.1314   1
   2  -2  10 3052.42 357.395   1
  -2  -3  10 282.030 161.981   1
   2  -3  10 116.014 100.091   1
  -2  -4  10 3358.06 374.582   1
  -2  -5  10-50.9118 96.5877   1
   3   0  10 344.850 142.523   1
   3   1  10 4.94260 95.2498   1
   3  -1  10-268.891 126.910   1
   3   2  10 64.7295 129.920   1
   3  -2  10 242.252 141.760   1
  -3  -4  10 87.7855 102.425   1
  -3  -5  10 166.046 88.7287   1
   4   0  10 2497.52 335.726   1
   4   1  10 268.748 133.748   1
   4   2  10 3248.49 367.467   1
   0   0   0    0.00    0.00   0

TITL hydrFe_360K in Pnma
REM Pnma (#62, found as Pbnm in bca setting)
CELL 0.71073   8.735716  11.763197   7.871141  90.0000  90.0000  90.0000
ZERR    4.00   0.000397   0.000515   0.000285   0.0000   0.0000   0.0000
LATT  1
SYMM -x+1/2,-y, z+1/2
SYMM -x, y+1/2,-z
SYMM  x+1/2,-y+1/2,-z+1/2
SFAC C H N O
UNIT 44.00 40.00 4.00 4.00
TREF
HKLF 4
END
;
_shelx_hkl_checksum              6369

