####################################################################### 
# 
# This file contains crystal structure data downloaded from the 
# Cambridge Structural Database (CSD) hosted by the Cambridge 
# Crystallographic Data Centre (CCDC).
# 
# Full information about CCDC data access policies and citation 
# guidelines are available at http://www.ccdc.cam.ac.uk/access/V1 
# 
# Audit and citation data items may have been added by the CCDC. 
# Please retain this information to preserve the provenance of 
# this file and to allow appropriate attribution of the data. 
# 
#######################################################################

data_hydrfe_rt_pna21
_audit_block_doi                 10.5517/ccdc.csd.cc1mk84l
_database_code_depnum_ccdc_archive 'CCDC 1506139'
loop_
_citation_id
_citation_doi
_citation_year
1 10.1039/C6CP06648H 2016
_audit_update_record             
;
2016-09-23 deposited with the CCDC.	2023-04-05 downloaded from the CCDC.
;

_audit_creation_method           SHELXL-2014/7
_shelx_SHELXL_version_number     2014/7
_chemical_name_systematic        ?
_chemical_name_common            ?
_chemical_melting_point          ?
_chemical_formula_moiety         ?
_chemical_formula_sum            'C3 H8 Fe N2 O6'
_chemical_formula_weight         223.96

loop_
_atom_type_symbol
_atom_type_description
_atom_type_scat_dispersion_real
_atom_type_scat_dispersion_imag
_atom_type_scat_source
C C 0.0033 0.0016 'International Tables Vol C Tables 4.2.6.8 and 6.1.1.4'
H H 0.0000 0.0000 'International Tables Vol C Tables 4.2.6.8 and 6.1.1.4'
Fe Fe 0.3463 0.8444 'International Tables Vol C Tables 4.2.6.8 and 6.1.1.4'
N N 0.0061 0.0033 'International Tables Vol C Tables 4.2.6.8 and 6.1.1.4'
O O 0.0106 0.0060 'International Tables Vol C Tables 4.2.6.8 and 6.1.1.4'

_space_group_crystal_system      orthorhombic
_space_group_IT_number           33
_space_group_name_H-M_alt        'P n a 21'
_space_group_name_Hall           'P 2c -2n'

_shelx_space_group_comment       
;
The symmetry employed for this shelxl refinement is uniquely defined
by the following loop, which should always be used as a source of
symmetry information in preference to the above space-group names.
They are only intended as comments.
;

loop_
_space_group_symop_operation_xyz
'x, y, z'
'-x, -y, z+1/2'
'-x+1/2, y+1/2, z+1/2'
'x+1/2, -y+1/2, z'

_cell_length_a                   8.811(3)
_cell_length_b                   7.782(3)
_cell_length_c                   11.657(4)
_cell_angle_alpha                90
_cell_angle_beta                 90
_cell_angle_gamma                90
_cell_volume                     799.3(5)
_cell_formula_units_Z            4
_cell_measurement_temperature    290(2)
_cell_measurement_reflns_used    4791
_cell_measurement_theta_min      3.4680
_cell_measurement_theta_max      28.9750

_exptl_crystal_description       block
_exptl_crystal_colour            'light brown'
_exptl_crystal_density_meas      ?
_exptl_crystal_density_method    ?
_exptl_crystal_density_diffrn    1.861
_exptl_crystal_F_000             456
_exptl_transmission_factor_min   ?
_exptl_transmission_factor_max   ?
_exptl_crystal_size_max          0.349
_exptl_crystal_size_mid          0.330
_exptl_crystal_size_min          0.294
_exptl_absorpt_coefficient_mu    1.884
_shelx_estimated_absorpt_T_min   ?
_shelx_estimated_absorpt_T_max   ?
_exptl_absorpt_correction_type   analytical
_exptl_absorpt_correction_T_min  0.563
_exptl_absorpt_correction_T_max  0.639
_exptl_absorpt_process_details   
;
Clark, R. C. & Reid, J. S. (1995). Acta Cryst. A51, 887-897
;
_exptl_absorpt_special_details   ?
_diffrn_ambient_temperature      290(2)
_diffrn_radiation_wavelength     0.71073
_diffrn_radiation_type           MoK\a
_diffrn_source                   'fine-focus sealed X-ray tube'
_diffrn_measurement_device_type  'Xcalibur, Atlas'
_diffrn_measurement_method       ?
_diffrn_detector_area_resol_mean 10.6249
_diffrn_reflns_number            7617
_diffrn_reflns_av_unetI/netI     0.0258
_diffrn_reflns_av_R_equivalents  0.0245
_diffrn_reflns_limit_h_min       -10
_diffrn_reflns_limit_h_max       10
_diffrn_reflns_limit_k_min       -9
_diffrn_reflns_limit_k_max       9
_diffrn_reflns_limit_l_min       -14
_diffrn_reflns_limit_l_max       14
_diffrn_reflns_theta_min         3.147
_diffrn_reflns_theta_max         25.998
_diffrn_reflns_theta_full        25.998
_diffrn_measured_fraction_theta_max 1.000
_diffrn_measured_fraction_theta_full 1.000
_diffrn_reflns_Laue_measured_fraction_max 1.000
_diffrn_reflns_Laue_measured_fraction_full 1.000
_diffrn_reflns_point_group_measured_fraction_max 0.999
_diffrn_reflns_point_group_measured_fraction_full 0.999
_reflns_number_total             1573
_reflns_number_gt                1409
_reflns_threshold_expression     'I > 2\s(I)'
_reflns_Friedel_coverage         0.900
_reflns_Friedel_fraction_max     0.997
_reflns_Friedel_fraction_full    0.997

_reflns_special_details          
;
 Reflections were merged by SHELXL according to the crystal
 class for the calculation of statistics and refinement.
 
 _reflns_Friedel_fraction is defined as the number of unique
 Friedel pairs measured divided by the number that would be
 possible theoretically, ignoring centric projections and
 systematic absences.
;

_computing_data_collection       ?
_computing_cell_refinement       ?
_computing_data_reduction        ?
_computing_structure_solution    ?
_computing_structure_refinement  'SHELXL-2014/7 (Sheldrick, 2014)'
_computing_molecular_graphics    ?
_computing_publication_material  ?
_refine_special_details          ?
_refine_ls_structure_factor_coef Fsqd
_refine_ls_matrix_type           full
_refine_ls_weighting_scheme      calc
_refine_ls_weighting_details     
'w=1/[\s^2^(Fo^2^)+(0.0287P)^2^+0.0897P] where P=(Fo^2^+2Fc^2^)/3'
_atom_sites_solution_primary     ?
_atom_sites_solution_secondary   ?
_atom_sites_solution_hydrogens   mixed
_refine_ls_hydrogen_treatment    constr
_refine_ls_extinction_method     'SHELXL-2014/7 (Sheldrick 2014'
_refine_ls_extinction_coef       0.0164(18)
_refine_ls_extinction_expression Fc^*^=kFc[1+0.001xFc^2^\l^3^/sin(2\q)]^-1/4^
_refine_ls_abs_structure_details 
;
 Flack x determined using 616 quotients [(I+)-(I-)]/[(I+)+(I-)]
 (Parsons, Flack and Wagner, Acta Cryst. B69 (2013) 249-259).
;
_refine_ls_abs_structure_Flack   0.054(11)
_chemical_absolute_configuration ?
_refine_ls_number_reflns         1573
_refine_ls_number_parameters     111
_refine_ls_number_restraints     1
_refine_ls_R_factor_all          0.0240
_refine_ls_R_factor_gt           0.0200
_refine_ls_wR_factor_ref         0.0510
_refine_ls_wR_factor_gt          0.0494
_refine_ls_goodness_of_fit_ref   1.061
_refine_ls_restrained_S_all      1.060
_refine_ls_shift/su_max          0.000
_refine_ls_shift/su_mean         0.000

loop_
_atom_site_label
_atom_site_type_symbol
_atom_site_fract_x
_atom_site_fract_y
_atom_site_fract_z
_atom_site_U_iso_or_equiv
_atom_site_adp_type
_atom_site_occupancy
_atom_site_site_symmetry_order
_atom_site_calc_flag
_atom_site_refinement_flags_posn
_atom_site_refinement_flags_adp
_atom_site_refinement_flags_occupancy
_atom_site_disorder_assembly
_atom_site_disorder_group
Fe1 Fe -0.52617(4) -0.49974(6) -0.11111(11) 0.01869(15) Uani 1 1 d . . . . .
O1 O -0.3112(2) -0.4188(3) -0.1774(2) 0.0311(5) Uani 1 1 d . . . . .
O2 O -0.1244(2) -0.2292(3) -0.1785(2) 0.0299(5) Uani 1 1 d . . . . .
O3 O -0.4261(3) -0.7264(3) -0.04228(19) 0.0305(5) Uani 1 1 d . . . . .
O4 O -0.2384(2) -0.9159(3) -0.0405(2) 0.0292(5) Uani 1 1 d . . . . .
O5 O -0.5547(3) -0.6402(3) -0.26797(18) 0.0301(6) Uani 1 1 d . . . . .
O6 O -0.5155(3) -0.6360(3) -0.4555(2) 0.0336(6) Uani 1 1 d . . . . .
C1 C -0.2543(4) -0.2786(4) -0.1510(3) 0.0312(8) Uani 1 1 d . . . . .
H1 H -0.3130 -0.2042 -0.1072 0.037 Uiso 1 1 calc R U . . .
C2 C -0.3080(4) -0.7900(4) -0.0808(3) 0.0310(8) Uani 1 1 d . . . . .
H2 H -0.2672 -0.7392 -0.1461 0.037 Uiso 1 1 calc R U . . .
C3 C -0.5315(4) -0.5645(4) -0.3617(4) 0.0286(8) Uani 1 1 d . . . . .
H3 H -0.5260 -0.4452 -0.3603 0.034 Uiso 1 1 calc R U . . .
N1 N -0.0688(6) -0.5065(3) -0.3444(4) 0.0363(11) Uani 1 1 d . . . . .
H1A H -0.1345 -0.5132 -0.4023 0.044 Uiso 1 1 calc R U . . .
H1B H -0.0905 -0.4153 -0.3015 0.044 Uiso 1 1 calc R U . . .
H1C H -0.0752 -0.6012 -0.3019 0.044 Uiso 1 1 calc R U . . .
N2 N 0.0816(7) -0.4905(4) -0.3888(5) 0.0557(16) Uani 1 1 d . . . . .
H2A H 0.1028 -0.5798 -0.4296 0.067 Uiso 1 1 d R U . . .
H2B H 0.0881 -0.3998 -0.4311 0.067 Uiso 1 1 d R U . . .

loop_
_atom_site_aniso_label
_atom_site_aniso_U_11
_atom_site_aniso_U_22
_atom_site_aniso_U_33
_atom_site_aniso_U_23
_atom_site_aniso_U_13
_atom_site_aniso_U_12
Fe1 0.0199(2) 0.0176(2) 0.0186(2) 0.00013(14) 0.0009(3) 0.00000(15)
O1 0.0284(12) 0.0246(12) 0.0405(13) -0.0040(11) 0.0048(11) -0.0067(10)
O2 0.0263(12) 0.0288(12) 0.0346(12) -0.0042(11) 0.0037(11) -0.0072(10)
O3 0.0310(12) 0.0280(12) 0.0326(12) 0.0043(11) 0.0062(11) 0.0103(10)
O4 0.0277(11) 0.0258(12) 0.0342(12) 0.0043(11) 0.0048(11) 0.0064(10)
O5 0.0406(13) 0.0283(14) 0.0213(13) -0.0003(11) 0.0021(10) -0.0061(11)
O6 0.0525(16) 0.0282(14) 0.0201(13) -0.0012(12) 0.0030(11) -0.0052(11)
C1 0.0309(18) 0.0271(15) 0.036(2) -0.0082(15) 0.0096(14) -0.0038(15)
C2 0.0329(19) 0.0298(17) 0.030(2) 0.0053(14) 0.0060(13) 0.0038(15)
C3 0.034(3) 0.0244(14) 0.0273(16) 0.001(2) -0.0026(16) -0.0039(14)
N1 0.051(3) 0.0277(18) 0.031(2) 0.0023(14) 0.001(2) 0.0091(13)
N2 0.036(3) 0.051(3) 0.080(5) 0.0131(19) 0.003(3) 0.0041(16)

_geom_special_details            
;
 All esds (except the esd in the dihedral angle between two l.s. planes)
 are estimated using the full covariance matrix.  The cell esds are taken
 into account individually in the estimation of esds in distances, angles
 and torsion angles; correlations between esds in cell parameters are only
 used when they are defined by crystal symmetry.  An approximate (isotropic)
 treatment of cell esds is used for estimating esds involving l.s. planes.
;

loop_
_geom_bond_atom_site_label_1
_geom_bond_atom_site_label_2
_geom_bond_distance
_geom_bond_site_symmetry_2
_geom_bond_publ_flag
Fe1 O3 2.129(2) . ?
Fe1 O2 2.131(2) 4_445 ?
Fe1 O6 2.131(3) 2_445 ?
Fe1 O1 2.140(2) . ?
Fe1 O5 2.145(3) . ?
Fe1 O4 2.146(2) 4_435 ?
O1 C1 1.240(4) . ?
O2 C1 1.249(4) . ?
O2 Fe1 2.131(2) 4_545 ?
O3 C2 1.236(4) . ?
O4 C2 1.248(4) . ?
O4 Fe1 2.146(2) 4_535 ?
O5 C3 1.258(5) . ?
O6 C3 1.235(5) . ?
O6 Fe1 2.131(3) 2_444 ?
C1 H1 0.9300 . ?
C2 H2 0.9300 . ?
C3 H3 0.9300 . ?
N1 N2 1.428(5) . ?
N1 H1A 0.8900 . ?
N1 H1B 0.8900 . ?
N1 H1C 0.8900 . ?
N2 H2A 0.8623 . ?
N2 H2B 0.8625 . ?

loop_
_geom_angle_atom_site_label_1
_geom_angle_atom_site_label_2
_geom_angle_atom_site_label_3
_geom_angle
_geom_angle_site_symmetry_1
_geom_angle_site_symmetry_3
_geom_angle_publ_flag
O3 Fe1 O2 179.21(11) . 4_445 ?
O3 Fe1 O6 91.07(11) . 2_445 ?
O2 Fe1 O6 88.23(10) 4_445 2_445 ?
O3 Fe1 O1 90.77(9) . . ?
O2 Fe1 O1 88.87(9) 4_445 . ?
O6 Fe1 O1 90.51(9) 2_445 . ?
O3 Fe1 O5 87.00(10) . . ?
O2 Fe1 O5 93.68(11) 4_445 . ?
O6 Fe1 O5 176.75(11) 2_445 . ?
O1 Fe1 O5 86.91(10) . . ?
O3 Fe1 O4 87.87(9) . 4_435 ?
O2 Fe1 O4 92.48(9) 4_445 4_435 ?
O6 Fe1 O4 88.58(10) 2_445 4_435 ?
O1 Fe1 O4 178.34(12) . 4_435 ?
O5 Fe1 O4 93.96(10) . 4_435 ?
C1 O1 Fe1 121.9(2) . . ?
C1 O2 Fe1 122.4(2) . 4_545 ?
C2 O3 Fe1 122.9(2) . . ?
C2 O4 Fe1 121.6(2) . 4_535 ?
C3 O5 Fe1 118.9(2) . . ?
C3 O6 Fe1 123.4(2) . 2_444 ?
O1 C1 O2 125.3(3) . . ?
O1 C1 H1 117.3 . . ?
O2 C1 H1 117.3 . . ?
O3 C2 O4 126.2(3) . . ?
O3 C2 H2 116.9 . . ?
O4 C2 H2 116.9 . . ?
O6 C3 O5 125.2(3) . . ?
O6 C3 H3 117.4 . . ?
O5 C3 H3 117.4 . . ?
N2 N1 H1A 109.5 . . ?
N2 N1 H1B 109.5 . . ?
H1A N1 H1B 109.5 . . ?
N2 N1 H1C 109.5 . . ?
H1A N1 H1C 109.5 . . ?
H1B N1 H1C 109.5 . . ?
N1 N2 H2A 109.3 . . ?
N1 N2 H2B 109.9 . . ?
H2A N2 H2B 109.3 . . ?

loop_
_geom_torsion_atom_site_label_1
_geom_torsion_atom_site_label_2
_geom_torsion_atom_site_label_3
_geom_torsion_atom_site_label_4
_geom_torsion
_geom_torsion_site_symmetry_1
_geom_torsion_site_symmetry_2
_geom_torsion_site_symmetry_3
_geom_torsion_site_symmetry_4
_geom_torsion_publ_flag
Fe1 O1 C1 O2 173.7(3) . . . . ?
Fe1 O2 C1 O1 -171.9(3) 4_545 . . . ?
Fe1 O3 C2 O4 175.3(3) . . . . ?
Fe1 O4 C2 O3 -175.8(3) 4_535 . . . ?
Fe1 O6 C3 O5 -179.3(3) 2_444 . . . ?
Fe1 O5 C3 O6 165.4(3) . . . . ?

loop_
_geom_hbond_atom_site_label_D
_geom_hbond_atom_site_label_H
_geom_hbond_atom_site_label_A
_geom_hbond_distance_DH
_geom_hbond_distance_HA
_geom_hbond_distance_DA
_geom_hbond_angle_DHA
_geom_hbond_site_symmetry_A
N1 H1B O1 0.89 2.42 2.970(6) 119.9 .
N1 H1B O2 0.89 2.06 2.940(5) 169.8 .
N1 H1A O4 0.89 2.10 2.933(6) 154.9 3_454
N1 H1C O5 0.89 2.06 2.893(4) 155.6 4_535
N2 H2B O3 0.86 2.35 3.049(5) 138.0 3_454
N2 H2A O6 0.86 2.46 3.128(5) 134.4 4_535

_refine_diff_density_max         0.186
_refine_diff_density_min         -0.211
_refine_diff_density_rms         0.048

_shelx_res_file                  
;

    hydrfe_rt_pna21.res created by SHELXL-2014/7

TITL a in Pna21 #33
REM reset to Pna21 #33
CELL 0.71073 8.811 7.782 11.657 90 90 90
ZERR 4 0.003 0.003 0.004 0 0 0
LATT -1
SYMM -X,-Y,0.5+Z
SYMM 0.5-X,0.5+Y,0.5+Z
SYMM 0.5+X,0.5-Y,+Z
SFAC C H Fe N O
UNIT 12 32 4 8 24
EQIV $1 -0.5-X,0.5+Y,-0.5+Z
EQIV $2 0.5+X,-1.5-Y,+Z

L.S. 3
PLAN  20
TEMP 16.85(12)
HTAB N1 O1
HTAB N1 O2
HTAB N1 O4_$1
HTAB N1 O5_$2
HTAB N2 O3_$1
HTAB N2 O6_$2
BOND
MORE -1
BOND $H
CONF
fmap 2
acta 52
OMIT 0 52
REM <olex2.extras>
REM <HklSrc "%.\\hydrFe_2_abs.hkl">
REM </olex2.extras>

WGHT    0.028700    0.089700
EXTI    0.016395
FVAR       9.07021
FE1   3   -0.526167   -0.499742   -0.111111    11.00000    0.01988    0.01755 =
         0.01862    0.00013    0.00093    0.00000
O1    5   -0.311222   -0.418794   -0.177402    11.00000    0.02839    0.02455 =
         0.04045   -0.00401    0.00485   -0.00669
O2    5   -0.124377   -0.229174   -0.178479    11.00000    0.02630    0.02877 =
         0.03455   -0.00423    0.00369   -0.00718
O3    5   -0.426080   -0.726448   -0.042278    11.00000    0.03105    0.02796 =
         0.03263    0.00427    0.00625    0.01034
O4    5   -0.238389   -0.915911   -0.040451    11.00000    0.02771    0.02579 =
         0.03424    0.00430    0.00476    0.00638
O5    5   -0.554734   -0.640178   -0.267968    11.00000    0.04056    0.02835 =
         0.02125   -0.00029    0.00215   -0.00614
O6    5   -0.515520   -0.636028   -0.455519    11.00000    0.05246    0.02821 =
         0.02010   -0.00118    0.00297   -0.00516
C1    1   -0.254255   -0.278620   -0.151012    11.00000    0.03094    0.02712 =
         0.03558   -0.00816    0.00958   -0.00379
AFIX  43
H1    2   -0.313026   -0.204177   -0.107174    11.00000   -1.20000
AFIX   0
C2    1   -0.308013   -0.790015   -0.080830    11.00000    0.03287    0.02979 =
         0.03024    0.00531    0.00603    0.00379
AFIX  43
H2    2   -0.267213   -0.739187   -0.146118    11.00000   -1.20000
AFIX   0
C3    1   -0.531521   -0.564522   -0.361740    11.00000    0.03408    0.02438 =
         0.02735    0.00148   -0.00263   -0.00394
AFIX  43
H3    2   -0.525971   -0.445201   -0.360296    11.00000   -1.20000
AFIX   0

N1    4   -0.068829   -0.506547   -0.344450    11.00000    0.05066    0.02771 =
         0.03058    0.00231    0.00142    0.00906
AFIX 133
H1A   2   -0.134456   -0.513178   -0.402321    11.00000   -1.20000
H1B   2   -0.090519   -0.415255   -0.301483    11.00000   -1.20000
H1C   2   -0.075245   -0.601211   -0.301883    11.00000   -1.20000
AFIX   0
N2    4    0.081560   -0.490498   -0.388832    11.00000    0.03635    0.05084 =
         0.07985    0.01306    0.00312    0.00410
AFIX   7
H2A   2    0.102769   -0.579757   -0.429623    11.00000   -1.20000
H2B   2    0.088080   -0.399807   -0.431081    11.00000   -1.20000
AFIX   0
HKLF 4

REM  a in Pna21 #33
REM R1 =  0.0200 for    1409 Fo > 4sig(Fo)  and  0.0240 for all    1573 data
REM    111 parameters refined using      1 restraints

END

WGHT      0.0287      0.0897

REM Highest difference peak  0.186,  deepest hole -0.211,  1-sigma level  0.048
Q1    1  -0.1235 -0.2216 -0.0390  11.00000  0.05    0.19
Q2    1  -0.5043 -0.6245 -0.2748  11.00000  0.05    0.18
Q3    1  -0.5133 -0.6100 -0.4345  11.00000  0.05    0.16
Q4    1  -0.5217 -0.5594 -0.1988  11.00000  0.05    0.15
Q5    1  -0.0849 -0.6166 -0.3560  11.00000  0.05    0.14
Q6    1  -0.5357 -0.6870 -0.2462  11.00000  0.05    0.14
Q7    1  -0.2480 -0.0906 -0.0389  11.00000  0.05    0.14
Q8    1  -0.3007 -0.2149 -0.0642  11.00000  0.05    0.14
Q9    1  -0.6113 -0.7384 -0.1810  11.00000  0.05    0.14
Q10   1  -0.4122 -0.1017 -0.0561  11.00000  0.05    0.13
Q11   1   0.0596 -0.4914 -0.3066  11.00000  0.05    0.13
Q12   1  -0.5895 -0.7166 -0.2804  11.00000  0.05    0.13
Q13   1  -0.3124 -0.7900 -0.1825  11.00000  0.05    0.13
Q14   1  -0.6793 -0.7497 -0.4576  11.00000  0.05    0.13
Q15   1  -0.1535 -0.2517 -0.1490  11.00000  0.05    0.13
Q16   1  -0.4221 -0.7675 -0.0743  11.00000  0.05    0.13
Q17   1  -0.2346 -0.9544 -0.0082  11.00000  0.05    0.12
Q18   1  -0.6218 -0.5969 -0.2539  11.00000  0.05    0.12
Q19   1  -0.4740 -0.6388 -0.1074  11.00000  0.05    0.12
Q20   1  -0.5029 -0.3739 -0.4594  11.00000  0.05    0.12
;
_shelx_res_checksum              44597

_shelx_hkl_file                  
;
   0   0 -14 88339.9 4314.01   4
   0   0 -13 908.580 581.664   4
   0   0 -12 180887. 5468.48   4
   0   0 -11 499.082 503.678   4
   0   0 -11 97.9750 248.946   1
   0   0 -10 2182.57 679.806   4
   0   0 -10 1471.56 374.213   1
   0   0  -9-161.852 450.904   4
   0   0  -9 3.06899 203.444   1
   0   0  -8 45641.7 1507.18   1
   0   0  -8 46926.2 2229.83   4
   0   0  -7 310.922 357.723   4
   0   0  -7 52.7177 180.524   1
   0   0  -6 63264.2 1534.00   1
   0   0  -6 63503.5 2188.56   4
   0   0  -5 48.2537 310.548   4
   0   0  -5-13.1341 150.156   1
   0   0  -4 768039. 6087.11   4
   0   0  -4 780610. 4366.01   1
   0   0  -3 164.427 266.347   4
   0   0  -3 42.5519 114.778   1
   0   0  -2 749050. 4211.31   4
   0   0  -2-0.23027 2194.12   1
   0   0   2 748046. 4197.41   4
   0   0   2 7187.32 1918.84   1
   0   0   3 272.382 212.130   4
   0   0   3 272.425 149.258   1
   0   0   4 739407. 5887.03   4
   0   0   4 759033. 4390.87   1
   0   0   5 438.740 298.256   4
   0   0   5-68.0018 172.074   1
   0   0   6 62442.3 2142.28   4
   0   0   6 60371.5 1518.22   1
   0   0   7-220.097 290.606   4
   0   0   7 273.457 217.257   1
   0   0   8 43918.5 1517.67   1
   0   0   9-113.611 235.548   1
   0   0  10 414.353 376.292   2
   0   0  10 1474.01 396.870   1
   0   0  11 5.21528 300.577   1
   0   0  11-72.0029 340.644   2
   0   0  12 176787. 4592.57   2
   0   0  12 182251. 3721.23   1
   0   0  13 112.501 422.058   3
   0   0  13 50.4046 432.406   2
   0   0  14 89361.0 3613.43   2
   0   0  14 81672.9 3689.76   3
   0   0  15-501.721 547.452   3
   0  -1 -14-270.359 760.279   4
   0   1 -14-76.7308 495.676   4
   0  -1 -13 4651.19 1037.35   4
   0   1 -13 4999.04 1034.63   4
   0   1 -12-1560.39 797.053   4
   0  -1 -12-470.194 732.298   4
   0   1 -11 1215.13 489.359   4
   0  -1 -11 789.008 241.173   1
   0   1 -11 1785.67 481.279   1
   0  -1 -11 814.766 633.658   4
   0  -1 -10 386.376 468.533   4
   0  -1 -10 20.7134 179.679   1
   0   1 -10-577.325 610.125   4
   0   1 -10-670.926 330.304   1
   0  -1  -9 24766.9 928.458   1
   0  -1  -9 22679.3 1671.40   4
   0   1  -9 22798.2 1343.78   1
   0   1  -9 25225.1 1794.86   4
   0   1  -8 70.6077 218.712   1
   0  -1  -8 887.912 456.439   4
   0   1  -8 263.292 399.521   4
   0  -1  -8 88.7747 137.491   1
   0  -1  -7 7581.50 447.539   1
   0  -1  -7 8596.38 943.779   4
   0   1  -7 6764.54 682.484   1
   0   1  -7 7291.73 868.474   4
   0   1  -6 60.2593 189.722   1
   0  -1  -6 159.748 116.198   1
   0  -1  -6 404.975 365.143   4
   0   1  -6 172.359 364.783   4
   0   1  -5 609313. 5357.19   1
   0   1  -5 626931. 6278.05   4
   0  -1  -5 615048. 6183.13   4
   0   1  -4 219.233 210.029   1
   0   1  -4 620.097 276.245   4
   0  -1  -4 250.398 211.717   4
   0   1  -3 564001. 4713.06   4
   0   1  -3 567121. 4357.15   1
   0  -1  -3 560519. 4655.34   4
   0   1  -2 808.961 214.965   1
   0  -1  -2 597.079 189.651   3
   0   1  -2 976.955 307.245   4
   0  -1  -1 263.898 135.697   3
   0   1  -1 22.6328 103.716   1
   0   1  -1-18.1433 105.485   3
   0  -1   0 228.144 100.430   1
   0  -1   0 112.765 83.9603   3
   0   1   0 330.156 136.012   3
   0  -1   1-140.548 151.780   3
   0   1   1 162.283 137.958   3
   0  -1   1-17.6295 101.511   1
   0   1   2 841.526 220.971   3
   0  -1   2 1042.69 256.589   1
   0   1   2 1023.85 257.554   4
   0  -1   2 689.578 255.899   4
   0   1   3 572335. 4300.00   3
   0   1   3 573796. 4693.20   4
   0  -1   3 566475. 4757.73   4
   0  -1   3 560413. 4408.49   1
   0  -1   4 334.150 239.752   4
   0   1   4 251.853 212.873   3
   0  -1   4 548.764 272.752   1
   0   1   4 176.612 229.604   4
   0  -1   5 621295. 5431.01   1
   0  -1   5 620702. 6241.46   4
   0   1   5 620416. 5557.02   3
   0   1   5 611141. 3021.53   1
   0   1   6 119.143 311.833   4
   0  -1   6 199.625 248.002   1
   0  -1   6 274.330 359.195   4
   0   1   6 154.237 252.517   3
   0   1   6 170.921 119.394   1
   0   1   7 8545.31 487.445   1
   0   1   7 7566.61 758.508   3
   0   1   7 7978.01 655.775   2
   0  -1   7 7992.32 900.697   4
   0  -1   7 8246.30 746.533   1
   0   1   7 8711.35 917.805   4
   0   1   8 209.759 254.831   2
   0  -1   8 20.3549 264.741   1
   0   1   8 0.58702 135.723   1
   0   1   8-25.4556 293.123   3
   0  -1   9 24039.1 1372.13   1
   0   1   9 24618.9 952.808   1
   0   1   9 24327.7 1323.93   2
   0   1   9 23079.8 1518.20   3
   0   1  10-72.7936 316.421   2
   0  -1  10-31.0657 346.051   1
   0   1  10 301.739 197.513   1
   0   1  10 150.782 348.797   3
   0  -1  11 586.857 353.753   1
   0   1  11 645.068 220.145   1
   0  -1  11 815.191 472.129   2
   0   1  11 214.542 440.677   3
   0   1  11 716.943 433.724   2
   0  -1  12-12.3794 486.267   2
   0   1  12-129.561 385.134   2
   0   1  12 238.964 399.565   3
   0  -1  12-53.0251 337.019   1
   0   1  13 4600.79 799.126   2
   0  -1  13 3960.93 918.752   2
   0   1  14-606.993 522.151   3
   0  -1  14-80.8962 522.543   2
   0   1  15 1113.38 652.747   3
   0  -1  15 1512.28 702.994   2
   0   2 -14 43449.0 3152.63   4
   0   2 -13-223.768 680.637   4
   0   2 -12 105784. 4361.42   4
   0   2 -11 373.306 394.566   4
   0   2 -10 154902. 4680.81   4
   0   2  -9-62.1312 508.012   4
   0   2  -9-84.1135 321.945   1
   0   2  -8 400447. 6620.69   4
   0   2  -8 394806. 5813.42   1
   0   2  -7 112.387 433.745   4
   0   2  -7-117.404 326.351   1
   0   2  -6 163198. 3664.62   4
   0   2  -6 161403. 3375.31   1
   0   2  -5 257.414 343.532   4
   0   2  -5 253.595 279.307   1
   0   2  -4 729810. 6385.36   1
   0   2  -4 736749. 6672.67   4
   0  -2  -4 751172. 6041.68   3
   0  -2  -3-150.340 205.997   3
   0   2  -3 119.788 280.993   4
   0   2  -3 208.943 225.585   1
   0   2  -2 11937.6 786.354   3
   0  -2  -2 12479.2 736.115   3
   0  -2  -2 13555.9 481.203   1
   0   2  -1 399.296 280.721   3
   0   2  -1 581.357 229.568   1
   0  -2  -1 597.163 195.770   1
   0  -2  -1 319.905 237.402   3
   0   2   0 492652. 4317.38   3
   0  -2   0 491558. 4357.79   3
   0   2   0 485459. 3809.55   1
   0   2   1 490.801 279.588   3
   0   2   1 623.426 181.196   1
   0  -2   1 108.816 245.442   1
   0   2   2 19233.9 575.608   1
   0  -2   2 19311.0 941.030   1
   0  -2   2 21259.6 1015.14   3
   0   2   2 21406.6 968.405   3
   0  -2   3 280.969 298.211   1
   0   2   3-20.0552 235.845   3
   0  -2   3 104.362 272.973   3
   0   2   4 750786. 6606.87   4
   0  -2   4 749574. 6510.14   1
   0   2   4 761707. 6200.94   3
   0  -2   5 77.5405 326.487   1
   0   2   5 156.147 273.448   3
   0   2   5 500.108 309.085   4
   0  -2   5-142.705 353.747   4
   0   2   5 227.380 104.494   2
   0   2   6 165702. 2034.05   2
   0  -2   6 166333. 3736.12   4
   0  -2   6 168071. 3447.05   1
   0   2   6 163005. 3309.81   3
   0   2   6 161415. 3657.17   4
   0   2   7 196.659 364.998   4
   0  -2   7-181.669 362.266   1
   0  -2   7 451.002 431.720   4
   0   2   7-19.5556 178.191   2
   0   2   7 186.020 306.112   3
   0   2   8 405088. 5943.31   3
   0  -2   8 404537. 5905.37   1
   0   2   8 409433. 4174.67   2
   0  -2   9 77.0533 337.548   1
   0   2   9 42.2048 224.048   2
   0   2   9 314.535 356.652   3
   0  -2  10 152914. 3977.87   1
   0   2  10 153370. 3050.34   2
   0   2  10 147214. 4057.08   3
   0  -2  11-309.240 475.627   1
   0   2  11 527.109 294.089   2
   0   2  12 98486.8 3701.39   3
   0  -2  12 100660. 3529.61   1
   0  -2  12 99662.4 3894.13   2
   0  -2  13 381.418 391.241   1
   0   2  13 169.943 477.442   3
   0  -2  13 433.066 604.744   2
   0  -2  14 37661.0 2725.49   2
   0   2  14 37330.1 2587.78   3
   0  -2  15-1062.85 706.959   2
   0   2  15 374.797 547.833   3
   0   3 -13 1559.24 627.407   4
   0   3 -12 20.5569 609.366   4
   0   3 -11 4729.49 1006.40   4
   0   3 -10-309.010 741.312   4
   0   3  -9 20200.1 1684.71   4
   0   3  -8 385.813 515.393   4
   0   3  -7 9457.22 1041.12   4
   0   3  -7 9547.65 1013.87   1
   0   3  -6-184.645 392.429   1
   0  -3  -6 95.4022 273.184   3
   0   3  -6-133.573 395.056   4
   0  -3  -5 570.444 297.324   3
   0   3  -5 431.910 395.684   4
   0   3  -5 846.586 373.034   1
   0  -3  -4 137.411 235.458   3
   0  -3  -4 324.789 112.847   1
   0   3  -4 217.951 254.743   1
   0   3  -4 292.769 339.758   4
   0   3  -3 203.001 362.287   4
   0  -3  -3 655.999 312.318   3
   0   3  -3 153.897 284.783   1
   0  -3  -3 53.1864 144.215   1
   0   3  -2 31.5954 212.715   1
   0  -3  -2 72.7940 155.857   1
   0  -3  -2 3.39082 228.827   3
   0   3  -2-36.1471 376.039   3
   0   3  -1 69846.8 1912.58   1
   0  -3  -1 70282.2 2055.33   3
   0   3  -1 71255.5 2070.94   3
   0  -3  -1 69009.7 1641.34   1
   0   3   0 373.253 338.795   3
   0  -3   0 26.6851 255.189   3
   0  -3   0-17.5767 218.042   1
   0   3   0-112.183 204.603   1
   0  -3   1 70181.1 2079.15   3
   0   3   1 72108.6 2041.60   3
   0  -3   1 70638.4 1931.01   1
   0   3   1 69274.3 1640.15   1
   0  -3   2 230.253 333.021   3
   0   3   2-104.645 350.008   3
   0  -3   2 334.734 317.512   1
   0   3   2 169.006 152.954   1
   0   3   3 620.324 333.000   3
   0   3   3 831.453 179.573   1
   0  -3   3 461.616 364.004   1
   0  -3   3 230.749 286.598   3
   0  -3   4 344.953 375.545   3
   0   3   4 171.821 90.1860   1
   0  -3   4 120.840 309.694   1
   0   3   4 253.621 260.119   3
   0   3   5 1155.02 420.388   4
   0   3   5 555.486 373.632   3
   0  -3   5 186.461 353.359   3
   0  -3   6 198.240 329.755   1
   0   3   6 295.412 325.250   3
   0  -3   6 157.470 364.361   3
   0   3   6 422.197 417.291   4
   0  -3   7 9921.19 1026.47   1
   0   3   7 10019.6 998.506   3
   0   3   8 44.0697 73.4863   2
   0   3   8 521.170 456.317   3
   0  -3   8 549.088 452.784   1
   0   3   8 7.33061 73.5309   2
   0   3   9 20615.2 716.608   2
   0   3   9 20054.0 709.491   2
   0   3   9 21848.9 1597.98   3
   0  -3   9 19978.1 1538.87   1
   0   3  10 4.19981 157.727   2
   0  -3  10-43.2746 388.470   1
   0   3  10 425.224 444.524   3
   0  -3  11 3408.63 805.369   1
   0   3  11 1957.80 655.926   3
   0   3  12-498.263 469.949   3
   0  -3  12-1103.70 611.356   2
   0  -3  12-1822.76 700.689   1
   0   3  13 1224.76 532.368   3
   0  -3  13 1348.51 564.886   1
   0  -3  13 1610.51 829.663   2
   0  -3  14 285.212 402.680   1
   0   3  14 106.217 435.262   3
   0  -3  14-258.139 629.653   2
   0  -3  15-125.896 739.953   2
   0   4 -13-472.017 779.895   4
   0   4 -12 25689.1 2325.17   4
   0   4 -11-29.6310 511.433   4
   0   4 -10 104764. 4145.14   4
   0   4  -9 114.932 515.213   4
   0   4  -8 120880. 3974.03   4
   0   4  -7 87.4285 463.069   4
   0   4  -6 29090.4 1814.07   4
   0  -4  -6 27595.9 1647.12   3
   0   4  -5-286.083 528.848   4
   0  -4  -5 42.4727 99.9947   1
   0  -4  -5 327.515 322.271   3
   0   4  -4 720471. 8079.74   1
   0   4  -4 721212. 8052.73   4
   0  -4  -4 726521. 7947.78   3
   0  -4  -4 745780. 4828.82   1
   0   4  -3 66.0235 236.229   1
   0   4  -3 337.109 380.743   3
   0  -4  -3 433.299 339.153   3
   0  -4  -3 121.129 201.221   1
   0  -4  -3 116.538 105.158   2
   0  -4  -3 117.778 111.217   2
   0   4  -2 459627. 6145.60   3
   0   4  -2 449708. 5815.86   1
   0  -4  -2 462972. 4662.12   1
   0   4  -1-105.522 227.468   1
   0  -4  -1-13.0033 227.912   1
   0  -4  -1 493.692 377.983   3
   0   4  -1 216.925 415.029   3
   0  -4   0 561576. 6800.97   3
   0   4   0 543302. 5780.01   1
   0  -4   0 553821. 5799.45   1
   0   4   1-154.409 315.855   3
   0  -4   1-29.2967 371.771   3
   0  -4   1-60.5067 316.206   1
   0   4   1 318.402 232.663   1
   0   4   2 456409. 4668.16   1
   0  -4   2 460754. 5879.24   1
   0   4   2 453562. 5954.70   3
   0   4   3-66.4719 181.962   1
   0   4   3 213.077 368.887   3
   0  -4   3-294.927 435.572   1
   0  -4   3-81.1535 355.567   3
   0   4   4 735393. 7966.85   3
   0  -4   4 708642. 7994.55   1
   0   4   4 756473. 4893.56   1
   0  -4   4 730104. 8403.27   3
   0   4   5 57.5995 96.2812   1
   0  -4   5 144.373 380.732   1
   0   4   5-128.665 373.077   3
   0   4   5 205.401 347.320   4
   0  -4   5-238.677 472.813   3
   0  -4   6 29249.9 1793.53   1
   0   4   6 28802.5 1734.60   3
   0  -4   7-78.3570 382.108   1
   0   4   7 21.4649 429.266   3
   0   4   8 122319. 3769.87   3
   0  -4   8 116279. 3804.90   1
   0   4   9 78.0679 354.434   3
   0  -4   9 19.7560 406.148   1
   0  -4  10 111789. 4048.58   1
   0   4  10 108928. 3864.56   3
   0  -4  11-212.752 506.424   1
   0   4  11-1387.53 610.145   3
   0   4  12 25677.2 2082.83   3
   0  -4  12 23425.2 2075.33   1
   0   4  13 1267.12 542.748   3
   0  -4  13 193.079 547.744   1
   0  -4  13-595.541 757.913   2
   0  -4  14 23828.2 2250.40   1
   0   4  14 23890.4 2188.92   3
   0   5 -12-160.087 848.323   4
   0   5 -11 14915.9 1752.79   4
   0   5 -10 343.335 526.672   4
   0   5  -9 1847.40 730.658   4
   0   5  -8-458.884 617.844   4
   0   5  -7 31991.8 2145.30   4
   0   5  -6-48.5490 480.569   4
   0   5  -5 448.454 505.659   4
   0  -5  -5 516.216 223.433   1
   0  -5  -4-63.2611 207.584   1
   0   5  -4-31.8837 399.810   4
   0  -5  -4-803.365 417.391   3
   0  -5  -3 131540. 2024.46   2
   0  -5  -3 127090. 2004.85   2
   0  -5  -3 125700. 2657.60   1
   0   5  -3 123073. 3683.19   3
   0  -5  -3 132447. 3758.52   3
   0   5  -2-364.597 480.520   3
   0  -5  -2-112.149 298.416   1
   0  -5  -2-1128.44 488.794   3
   0   5  -2-380.143 381.221   1
   0  -5  -1 65730.6 2673.98   3
   0  -5  -1 65227.4 2156.72   1
   0   5  -1 72054.9 2699.36   3
   0   5  -1 66869.3 2436.38   1
   0   5   0-30.6108 427.732   3
   0   5   0-124.091 218.255   1
   0  -5   0 311.138 336.236   1
   0  -5   0-188.571 382.708   3
   0  -5   1 65765.6 2390.74   1
   0   5   1 67711.2 2601.73   3
   0   5   1 64464.9 2158.50   1
   0  -5   1 63965.1 2687.33   3
   0   5   2 162.341 241.639   1
   0  -5   2-240.661 368.229   1
   0   5   2 455.152 510.968   3
   0   5   3 124875. 3600.79   3
   0   5   3 126427. 2687.80   1
   0  -5   3 128308. 3588.27   1
   0   5   4 852.448 520.088   3
   0  -5   4 380.532 399.534   1
   0   5   4-105.430 183.298   1
   0  -5   5 329.691 435.331   1
   0   5   5 660.223 205.910   1
   0   5   5 386.120 462.398   3
   0   5   6 58.1549 91.4844   1
   0  -5   6-198.995 364.882   1
   0   5   6 560.681 476.594   3
   0  -5   7 34457.2 2220.92   1
   0   5   7 31265.7 2021.48   3
   0  -5   8 514.805 477.977   1
   0   5   8 343.382 489.738   3
   0  -5   9 1743.19 633.180   1
   0   5   9 1856.18 680.629   3
   0  -5  10 89.2133 529.722   1
   0   5  10 311.742 507.648   3
   0  -5  11 13442.6 1659.10   1
   0   5  11 11592.0 1463.32   3
   0  -5  12-569.692 752.927   2
   0  -5  12-278.694 760.114   1
   0   5  12-1223.70 607.426   3
   0   5  13 3524.75 972.220   3
   0  -5  13 6089.94 1201.30   1
   0  -5  14 918.566 729.505   1
   0   6 -11-143.629 747.080   4
   0   6 -10 87217.7 4151.44   4
   0   6  -9 462.147 629.670   4
   0   6  -8 199185. 5747.35   4
   0   6  -7-208.932 705.084   4
   0  -6  -6 286146. 3303.53   1
   0   6  -6 291985. 6510.83   4
   0  -6  -5 36.2455 258.993   1
   0   6  -5-192.735 588.242   4
   0   6  -4 156835. 4481.19   4
   0  -6  -4 154918. 1946.00   2
   0  -6  -4 153191. 3132.68   1
   0  -6  -3-25.7547 159.651   2
   0  -6  -3 86.7933 181.370   2
   0   6  -3-164.075 607.038   3
   0  -6  -3-101.051 310.783   1
   0   6  -2 19099.1 1620.30   3
   0  -6  -2 17594.8 1214.05   1
   0  -6  -1 160.901 328.266   1
   0   6  -1-323.259 522.963   3
   0  -6   0 58080.3 2359.33   1
   0   6   0 56516.6 2632.14   3
   0   6   1-183.837 392.100   1
   0   6   1 502.384 452.057   3
   0  -6   1-95.5258 408.632   1
   0  -6   2 19541.5 1520.31   1
   0   6   2 17227.6 1211.25   1
   0   6   2 19472.5 1599.71   3
   0   6   3-88.5409 479.022   3
   0   6   3-76.3791 290.921   1
   0  -6   3 115.233 385.542   1
   0  -6   4 153528. 4462.89   1
   0   6   4 151326. 3157.89   1
   0   6   4 155218. 4436.28   3
   0  -6   5-346.406 476.735   1
   0   6   5-249.595 552.064   3
   0   6   5 504.667 240.185   1
   0   6   6 282250. 3341.74   1
   0   6   6 286260. 6285.48   3
   0  -6   6 290729. 6519.58   1
   0  -6   7-640.341 623.663   1
   0   6   7 669.148 569.222   3
   0  -6   8 195116. 5699.81   1
   0   6   8 199065. 5540.42   3
   0   6   9 494.854 612.393   3
   0  -6   9-69.2628 599.732   1
   0   6  10 78762.7 3760.94   3
   0  -6  10 81290.4 4024.44   1
   0  -6  11 229.816 505.392   1
   0   6  11 267.652 507.620   3
   0   6  12 33035.0 2638.98   3
   0  -6  12 29225.8 2574.61   1
   0   7 -10 133.372 396.711   4
   0   7  -9 2134.98 892.246   4
   0   7  -8 55.1287 632.258   4
   0   7  -7-25.9695 692.927   4
   0   7  -6-150.131 521.173   4
   0  -7  -5 15654.6 1082.98   1
   0   7  -5 17747.7 1738.00   4
   0  -7  -4 639.604 348.640   1
   0  -7  -4-22.5472 121.114   2
   0  -7  -3 12005.5 818.226   2
   0   7  -3 10065.0 1295.98   3
   0  -7  -3 8893.84 748.028   2
   0  -7  -3 11724.2 1054.79   1
   0  -7  -2 95.3839 358.356   1
   0  -7  -2 123.277 269.779   2
   0   7  -2-666.569 649.647   3
   0   7  -1 1501.86 633.214   3
   0  -7  -1 2812.98 628.991   1
   0   7   0 360.642 551.773   3
   0  -7   0 99.9353 384.595   1
   0  -7   1 2155.62 629.941   1
   0   7   1 2353.02 780.896   3
   0   7   2 774.500 531.798   3
   0  -7   2-29.2643 411.225   1
   0   7   3 10589.4 1333.54   3
   0  -7   3 10723.8 1315.45   1
   0   7   3 9181.75 956.087   1
   0  -7   4 121.852 438.014   1
   0   7   4 228.599 230.681   1
   0  -7   5 15594.4 1636.26   1
   0   7   5 15691.8 1625.15   3
   0   7   6 29.2632 601.609   3
   0  -7   6 143.912 574.029   1
   0   7   7-550.057 683.312   3
   0  -7   7-602.375 648.846   1
   0   7   8-61.0056 401.970   3
   0  -7   8 321.994 592.884   1
   0  -7   9 1267.58 656.018   1
   0   7   9 1890.38 681.808   3
   0  -7  10-24.0766 603.710   1
   0   7  10 657.520 616.468   3
   0   7  11 1480.52 693.421   3
   0   7  12-616.419 972.225   3
   0   8  -9 343.213 582.485   4
   0   8  -8 35403.6 2797.82   4
   0   8  -7-1030.19 674.723   4
   0   8  -6 96441.0 4325.99   4
   0   8  -5-298.612 606.847   4
   0  -8  -4 52428.4 2327.96   1
   0   8  -4 52307.8 3055.89   4
   0  -8  -3 284.481 406.740   1
   0   8  -3-77.2241 737.443   3
   0  -8  -2 50783.7 2498.85   1
   0   8  -2 48330.5 2980.19   3
   0  -8  -2 50363.2 2089.77   2
   0   8  -1-338.016 562.960   3
   0  -8  -1-106.275 453.028   1
   0  -8  -1-174.709 436.959   2
   0  -8   0 135660. 3921.47   2
   0   8   0 140836. 4930.58   3
   0  -8   0 133907. 4291.24   1
   0  -8   1-177.089 569.456   1
   0   8   1-445.798 611.702   3
   0  -8   2 52226.9 2907.94   1
   0   8   2 51198.2 3025.45   3
   0  -8   3-60.7787 472.636   1
   0   8   3-799.388 672.504   3
   0  -8   4 47755.9 2937.32   1
   0   8   4 50012.7 3001.45   3
   0   8   5-736.348 681.271   3
   0  -8   5 1153.93 700.722   1
   0   8   6 85707.8 4029.69   3
   0  -8   6 89189.4 4190.01   1
   0   8   7 80.0353 562.106   3
   0  -8   7 385.475 551.386   1
   0  -8   8 31135.0 2691.01   1
   0   8   8 35505.4 2729.59   3
   0   8   9 954.799 666.292   3
   0   8  10 24347.5 2384.31   3
   0   9  -6-1744.07 839.241   4
   0   9  -5 199.260 598.905   4
   0   9  -4-196.436 749.545   4
   0  -9  -3 6498.23 980.895   1
   0   9  -2-505.178 736.403   3
   0  -9  -2 23.1718 527.902   1
   0   9  -1 6575.87 1284.11   3
   0  -9  -1 5048.22 954.431   1
   0  -9   0 358.028 538.263   1
   0   9   0-14.8383 643.508   3
   0  -9   0 191.657 352.668   2
   0  -9   1 5242.70 1150.38   1
   0  -9   1 5612.37 1026.89   2
   0   9   1 5995.38 1244.40   3
   0  -9   2-3.31443 577.688   1
   0  -9   2-323.571 455.382   2
   0   9   2 345.123 659.983   3
   0  -9   3 6095.73 1201.34   1
   0   9   3 7718.87 1350.17   3
   0  -9   3 7282.24 1159.66   2
   0   9   4 1370.21 759.221   3
   0  -9   4-624.952 617.595   1
   0  -9   4 618.622 504.415   2
   0  -9   5 2028.73 930.277   1
   0  -9   5 1458.88 698.466   2
   0   9   5-19.0175 782.594   3
   0   9   6-147.341 592.176   3
   0  -9   6-1586.68 722.709   2
   0   9   7 2550.59 907.113   3
   0   9   8 560.214 669.332   3
   0 -10  -1-2803.94 924.649   1
   0 -10   0 51334.6 3156.74   1
   0 -10   1-2392.25 782.588   1
   0 -10   2 50973.3 3121.28   2
   0 -10   2 51768.1 3315.48   1
   0 -10   3 490.636 596.991   2
   0 -10   4 50875.5 3390.83   2
   1   0 -14-298.213 590.224   4
  -1   0 -14-86.5086 670.002   4
   1   0 -13 635.657 563.406   4
  -1   0 -13-501.710 710.373   4
   1   0 -12-554.224 781.748   4
  -1   0 -12 21.3236 666.247   4
   1   0 -11 85.0060 405.586   4
  -1   0 -11 206.088 340.769   1
   1   0 -11-626.998 288.049   1
  -1   0 -11 698.616 638.510   4
  -1   0 -10-91.9126 463.835   4
  -1   0 -10 28.5896 222.024   1
   1   0 -10-593.761 283.406   1
   1   0  -9-25.7706 376.240   4
   1   0  -9-31.2891 264.845   1
  -1   0  -9-636.371 269.642   1
  -1   0  -9 166.631 447.155   4
   1   0  -8-638.055 263.797   1
   1   0  -8 243.161 426.491   4
  -1   0  -8 91.7115 402.580   4
  -1   0  -8-65.2496 200.381   1
   1   0  -7 67.7356 182.177   1
  -1   0  -7-111.930 192.954   1
   1   0  -7 24.1521 375.227   4
  -1   0  -7 125.771 350.775   4
  -1   0  -6 57.0629 183.780   1
  -1   0  -6 370.894 332.653   4
   1   0  -6 73.8186 178.211   1
   1   0  -6 272.785 388.488   4
  -1   0  -5 310.191 197.793   1
  -1   0  -5 74.5724 302.166   4
   1   0  -5 346.655 330.697   4
   1   0  -5-46.4419 159.331   1
   1   0  -4 135.075 280.892   4
  -1   0  -4 620.127 319.649   4
   1   0  -4 26.3382 141.874   1
  -1   0  -4 112.626 162.936   1
   1   0  -3 383.862 270.033   4
   1   0  -3 522.648 192.568   1
  -1   0  -3 500.914 178.265   1
  -1   0  -3 453.238 287.916   4
  -1   0  -3 799.937 236.786   2
   1   0  -2 716.911 205.454   4
  -1   0  -2 485.747 204.481   4
  -1   0  -2 421.775 204.172   2
  -1   0  -2 334.392 147.103   1
   1   0  -2 824.005 183.525   1
  -1   0  -1 1126.61 173.040   2
   1   0  -1-40.8605 79.2476   4
  -1   0  -1 59.5132 78.6787   4
  -1   0  -1 826.845 148.634   1
   1   0  -1-37.5677 97.5037   2
  -1   0   0 55.2758 74.0095   2
  -1   0   1 62.3341 92.4344   2
  -1   0   1 200.383 87.7816   4
   1   0   1 120.337 103.865   1
   1   0   1-52.2383 101.623   2
   1   0   2 976.239 213.746   4
  -1   0   2 1022.20 217.323   4
  -1   0   2 422.614 171.315   1
   1   0   2 326.754 192.414   2
   1   0   2 173.497 142.266   1
   1   0   3 541.488 249.927   2
   1   0   3 613.901 192.163   1
  -1   0   3 511.206 246.972   4
  -1   0   3 393.638 191.680   1
  -1   0   4 618.186 220.010   1
   1   0   4 355.174 202.055   4
  -1   0   4 476.485 275.917   4
   1   0   4 252.051 217.742   2
   1   0   5-165.936 250.677   2
   1   0   5 174.497 172.283   1
  -1   0   5-159.335 248.052   4
  -1   0   5 111.857 171.669   1
   1   0   5 23.6535 205.654   4
   1   0   6 317.458 262.893   4
  -1   0   6 552.363 242.064   1
  -1   0   6 70.7227 252.964   4
   1   0   6 284.491 276.871   2
   1   0   6 181.987 205.427   1
   1   0   7-72.8830 202.838   1
   1   0   7-158.531 288.586   2
   1   0   7 620.876 385.601   4
  -1   0   7 101.522 248.566   4
  -1   0   7-45.2845 199.402   1
  -1   0   8-48.7974 275.433   1
   1   0   8-88.4480 259.222   1
   1   0   8 288.981 346.259   2
   1   0   9 462.721 365.204   2
  -1   0   9 424.454 270.786   1
   1   0   9 142.392 252.143   1
  -1   0  10-57.0257 308.060   1
   1   0  10 402.613 275.095   1
   1   0  10-93.0938 363.878   2
   1   0  11 167.476 441.471   2
   1   0  11 220.430 265.054   1
  -1   0  11 27.2776 285.976   1
   1   0  12 223.049 304.942   1
   1   0  12 334.214 426.903   2
  -1   0  12 211.435 301.055   1
   1   0  13-220.370 419.264   2
  -1   0  13 944.457 525.541   2
  -1   0  13-312.986 618.702   3
   1   0  13-75.3367 317.914   3
  -1   0  14-119.810 526.464   2
   1   0  14 1173.32 614.990   2
  -1   0  14-501.157 706.316   3
   1   0  14-392.954 399.801   3
  -1   0  15-45.7308 567.720   3
  -1   0  16-3.82397 612.780   3
   1   1 -14 49896.5 3262.89   4
   1  -1 -14 50636.4 3340.03   4
  -1  -1 -14 45231.0 3139.36   4
  -1   1 -14 52519.8 3382.16   4
  -1  -1 -13 2690.59 828.278   4
   1  -1 -13 2698.45 865.114   4
   1   1 -13 1620.91 764.580   4
  -1   1 -13 1608.31 716.975   4
  -1   1 -12 149305. 5041.56   4
   1   1 -12 139216. 4867.43   4
   1  -1 -12 147823. 5011.94   4
  -1  -1 -12 144180. 4905.82   4
  -1  -1 -11 10348.6 1282.60   4
   1  -1 -11 9448.85 666.386   1
   1  -1 -11 10264.3 1323.89   4
  -1   1 -11 8223.62 910.335   1
   1   1 -11 11071.3 1381.86   4
  -1   1 -11 11246.8 1391.05   4
   1   1 -11 7915.97 888.550   1
   1  -1 -10 51205.8 2647.67   4
  -1  -1 -10 58907.3 1550.63   1
  -1   1 -10 53599.2 2152.87   1
   1   1 -10 48832.6 2071.19   1
   1   1 -10 51909.2 2678.82   4
  -1   1 -10 54534.8 2744.67   4
  -1  -1 -10 52406.6 2635.37   4
   1  -1 -10 52723.4 1474.63   1
   1  -1  -9 4725.72 449.330   1
  -1  -1  -9 4232.58 811.471   4
   1  -1  -9 4849.60 881.680   4
  -1  -1  -9 4583.53 451.539   1
  -1   1  -9 4609.51 625.006   1
   1   1  -9 4578.53 863.424   4
   1   1  -9 5104.40 655.109   1
  -1   1  -9 4925.65 905.439   4
  -1   1  -8 184773. 3611.23   1
  -1  -1  -8 185560. 2510.21   1
   1  -1  -8 186724. 4415.07   4
  -1   1  -8 188496. 4462.58   4
   1  -1  -8 184391. 2495.24   1
   1   1  -8 197390. 4543.56   4
  -1  -1  -8 188389. 4336.54   4
   1   1  -8 186955. 3642.66   1
   1   1  -7 19463.7 1149.18   1
  -1  -1  -7 19156.1 753.796   1
   1  -1  -7 17766.3 1323.98   4
  -1   1  -7 16839.6 1052.17   1
  -1   1  -7 21233.7 1421.96   4
   1   1  -7 20680.1 1393.39   4
  -1  -1  -7 18207.2 1304.41   4
   1  -1  -7 19871.3 774.461   1
   1  -1  -6 446141. 5865.84   4
   1  -1  -6 443733. 3369.86   1
  -1   1  -6 439310. 5825.80   4
   1   1  -6 448112. 5830.33   4
   1   1  -6 438437. 5008.64   1
  -1  -1  -6 423362. 3231.54   1
  -1  -1  -6 434735. 5641.40   4
  -1   1  -6 429430. 4904.12   1
   1   1  -5 77274.9 1984.69   1
  -1  -1  -5 80739.7 1286.44   1
   1   1  -5 81111.9 2259.96   4
   1  -1  -5 79705.8 1316.42   1
  -1  -1  -5 78211.3 2186.91   4
   1  -1  -5 80253.0 2286.89   4
  -1   1  -5 80350.5 2293.59   4
  -1   1  -5 76320.1 1942.79   1
   1  -1  -4 155133. 2872.01   4
  -1   1  -4 159647. 2904.49   4
   1   1  -4 156605. 2631.04   1
   1  -1  -4 156765. 1703.15   1
  -1   1  -4 155722. 2589.07   1
  -1  -1  -4 159574. 2763.75   4
   1   1  -4 154757. 2790.69   4
   1   1  -3 151798. 2415.57   1
   1   1  -3 158889. 2450.53   4
  -1   1  -3 157660. 2596.06   4
   1  -1  -3 151287. 1577.61   1
  -1  -1  -3 148915. 2317.92   4
  -1   1  -3 156910. 2417.77   1
  -1  -1  -3 152544. 1896.76   2
   1  -1  -2 855486. 5316.19   3
   1  -1  -2 848744. 3638.49   1
  -1   1  -2 824751. 5247.54   4
  -1   1  -2 846657. 5169.41   1
  -1  -1  -2 807246. 4442.16   4
  -1   1  -2 816731. 4609.31   3
  -1  -1  -2 767521. 3851.08   2
   1   1  -2 876637. 5307.03   1
   1   1  -2 864009. 4717.27   4
   1  -1  -1 31598.7 682.199   2
   1   1  -1 31101.5 711.969   4
   1  -1  -1 31456.9 755.654   1
   1   1  -1 31172.8 922.214   1
  -1   1  -1 30771.4 914.380   1
  -1  -1  -1 31203.2 697.699   3
   1  -1  -1 30947.5 923.816   3
  -1   1  -1 30559.1 901.315   2
  -1   1  -1 31295.1 859.086   3
  -1  -1  -1 31658.9 764.401   2
  -1  -1   0 867168. 4446.84   1
  -1  -1   0 867386. 4324.16   2
   1  -1   0 895449. 4208.11   2
  -1  -1   0 866347. 4050.75   3
   1  -1   0 897593. 4393.53   1
  -1   1   0 894105. 4175.05   2
  -1   1   0 858841. 4597.73   3
  -1   1   1 33127.1 710.561   2
  -1   1   1 33220.6 780.670   1
   1  -1   1 32008.4 864.839   3
   1   1   1 32149.8 767.906   1
   1  -1   1 32063.1 936.483   1
  -1   1   1 33871.4 975.892   3
   1  -1   1 32724.2 941.752   2
   1   1   1 33805.3 704.362   3
  -1  -1   1 32098.4 957.826   1
   1   1   1 33231.2 772.624   2
   1   1   2 807908. 4484.09   4
   1  -1   2 849226. 5359.26   2
  -1   1   2 848728. 3476.84   2
   1  -1   2 810138. 4582.26   3
  -1  -1   2 872394. 5309.12   1
  -1  -1   2 847549. 4696.92   4
   1  -1   2 828971. 5141.16   1
  -1   1   2 859236. 5369.84   3
   1   1   2 806111. 3835.43   2
   1   1   2 781766. 3631.75   3
   1  -1   3 161134. 2610.79   2
   1  -1   3 158860. 2461.00   1
  -1   1   3 159725. 2585.72   3
  -1   1   3 163356. 1774.26   2
   1   1   3 162536. 2442.09   4
   1   1   3 160490. 1909.85   3
  -1  -1   3 159172. 2438.08   4
   1  -1   3 157927. 2623.34   4
  -1   1   3 166836. 2627.35   4
   1   1   3 157489. 1922.52   2
   1  -1   3 165717. 2328.02   3
   1   1   3 159663. 1593.14   1
  -1  -1   3 165060. 2527.55   1
  -1   1   4 154101. 2801.75   3
  -1   1   4 154011. 2860.00   4
   1  -1   4 147641. 2550.96   1
   1   1   4 152741. 2178.81   3
   1   1   4 158009. 2166.07   2
  -1  -1   4 152877. 2738.31   4
   1  -1   4 156967. 2833.99   2
   1   1   4 156058. 1670.68   1
   1   1   4 158899. 2769.66   4
  -1  -1   4 159490. 2673.05   1
   1  -1   4 154015. 2893.84   4
  -1   1   5 82066.8 2237.41   3
  -1  -1   5 81582.9 2045.72   1
   1  -1   5 80503.4 2214.76   2
   1   1   5 83064.8 2273.45   4
   1   1   5 84559.5 1837.05   3
   1   1   5 84126.2 1797.41   2
   1   1   5 84857.0 1334.99   1
  -1   1   5 85033.9 2348.06   4
  -1  -1   5 82711.8 2263.95   4
   1  -1   5 87220.0 2413.95   4
   1  -1   5 83277.2 2047.48   1
   1  -1   6 434756. 4966.33   1
   1  -1   6 438314. 5513.92   2
  -1  -1   6 432669. 5671.85   4
   1   1   6 434114. 4635.70   3
  -1  -1   6 438674. 5032.32   1
  -1   1   6 439674. 5573.05   3
   1  -1   6 424947. 5789.89   4
   1   1   6 431495. 5641.01   4
  -1   1   6 439209. 5859.37   4
   1   1   6 446824. 3336.94   1
   1   1   6 423391. 4429.69   2
  -1  -1   7 21445.5 1405.18   4
   1   1   7 21542.5 1400.56   4
   1  -1   7 17582.9 1097.93   1
  -1   1   7 20526.5 1314.26   3
   1  -1   7 20708.1 1315.42   2
   1  -1   7 19209.3 1398.05   4
  -1  -1   7 19455.3 1146.86   1
   1   1   7 20467.4 795.652   1
   1   1   7 19898.7 1114.54   3
  -1   1   7 19882.2 1377.45   4
   1   1   7 22097.1 1120.32   2
   1  -1   8 185710. 3639.78   1
   1   1   8 190367. 3670.48   3
  -1  -1   8 186810. 3660.00   1
   1   1   8 189616. 3497.18   2
   1  -1   8 184412. 4084.36   2
   1   1   8 194433. 2569.59   1
  -1   1   8 179480. 4100.83   3
   1   1   9 4839.70 689.628   2
  -1   1   9 3828.76 741.091   3
   1   1   9 4487.71 444.599   1
   1  -1   9 4019.40 643.970   1
   1   1   9 4440.70 651.245   3
   1  -1   9 4358.93 768.601   2
  -1  -1   9 4206.30 662.823   1
   1  -1  10 53177.5 2492.06   2
   1   1  10 51987.1 2202.73   3
   1   1  10 48939.6 2059.99   2
   1  -1  10 55301.1 2191.13   1
  -1   1  10 51230.0 2491.54   3
   1   1  10 53269.0 1502.56   1
  -1  -1  10 52699.1 2185.32   1
   1  -1  11 10491.4 1228.20   2
   1   1  11 8059.91 621.401   1
   1  -1  11 7281.84 871.801   1
  -1   1  11 9694.74 1198.67   3
   1   1  11 9087.20 1041.29   3
  -1   1  11 9404.61 953.813   2
  -1  -1  11 10389.3 1053.20   1
   1   1  11 8706.57 957.323   2
  -1   1  12 137724. 4488.16   3
   1   1  12 139138. 3855.02   2
   1  -1  12 131738. 4322.88   2
  -1   1  12 137754. 3682.53   2
   1   1  12 141717. 4088.35   3
   1  -1  12 140315. 3783.14   1
  -1  -1  12 142037. 3865.58   1
   1   1  13 1926.46 643.240   3
   1  -1  13 588.098 573.066   2
  -1   1  13 3015.24 798.907   3
  -1   1  13 2085.15 558.375   2
   1   1  13 1463.81 479.055   2
  -1  -1  14 46281.1 2792.40   2
   1  -1  14 44847.7 2829.78   2
  -1   1  14 46662.2 2910.19   3
   1   1  14 48563.1 2712.62   3
   1  -1  15 922.936 574.903   2
  -1   1  15 487.648 657.557   3
  -1  -1  15 1234.88 691.962   2
  -1   2 -14 796.121 741.962   4
   1   2 -14-216.366 661.163   4
   1   2 -13 3399.87 989.137   4
  -1   2 -13 2671.33 970.735   4
   1   2 -12 180.948 598.126   4
  -1   2 -12 1331.49 684.205   4
  -1  -2 -12 631.714 566.030   4
   1   2 -11 10139.0 1319.63   4
  -1   2 -11 8551.70 1248.11   4
  -1  -2 -11 7785.34 1167.08   4
   1   2 -10 4981.51 912.741   4
  -1  -2 -10 6560.50 1050.71   4
  -1   2 -10 4819.52 887.663   4
  -1  -2  -9 24523.6 1751.96   4
  -1   2  -9 27312.5 1634.04   1
   1   2  -9 25158.1 1580.40   1
   1   2  -9 28513.8 1915.79   4
  -1   2  -9 29469.1 1979.37   4
   1   2  -8 11736.3 1049.05   1
  -1  -2  -8 12733.1 1204.30   4
   1   2  -8 12638.2 1234.17   4
  -1   2  -8 11660.7 1036.93   1
  -1   2  -8 13486.0 1288.09   4
   1   2  -7 7146.80 905.495   4
  -1   2  -7 6971.27 788.762   1
   1   2  -7 6855.13 793.378   1
  -1   2  -7 6197.74 852.337   4
  -1  -2  -7 6152.81 827.642   4
   1   2  -6 4954.77 658.067   1
   1   2  -6 5240.54 714.282   4
  -1   2  -6 4849.34 734.981   4
  -1  -2  -6 5405.59 709.500   4
  -1   2  -6 3702.41 573.745   1
  -1   2  -5 110053. 2677.97   1
   1   2  -5 105187. 2657.69   1
   1   2  -5 109724. 2740.48   4
  -1   2  -5 110373. 2861.99   4
   1  -2  -4 4682.32 558.152   3
   1   2  -4 5109.31 581.541   4
  -1  -2  -4 5250.78 500.570   3
  -1   2  -4 5407.29 641.248   4
   1  -2  -4 5210.28 280.981   1
  -1  -2  -4 5379.13 356.288   2
  -1   2  -4 4337.97 552.962   1
   1   2  -4 4690.30 562.259   1
   1  -2  -3 21130.0 623.048   1
  -1  -2  -3 19947.4 870.121   3
  -1   2  -3 19564.5 1021.94   1
   1  -2  -3 19417.8 1022.05   3
  -1   2  -3 20567.1 1104.20   4
  -1  -2  -3 20117.9 635.621   2
   1   2  -3 20602.1 1064.67   1
   1   2  -3 19961.9 989.327   4
   1  -2  -2 60075.8 1179.24   1
  -1   2  -2 58747.9 1631.79   3
   1   2  -2 62608.1 1703.58   1
   1  -2  -2 59510.5 1697.79   3
   1   2  -2 58485.5 1497.77   4
  -1  -2  -2 60240.1 1197.47   1
  -1   2  -2 58079.9 1626.85   1
  -1  -2  -2 60217.3 1113.94   2
  -1  -2  -2 56921.4 1434.43   3
  -1   2  -1 146910. 2511.21   3
   1   2  -1 148066. 2462.07   1
  -1  -2  -1 152598. 2112.74   1
   1  -2  -1 153681. 2080.25   1
  -1  -2  -1 147358. 2301.20   3
  -1   2  -1 150373. 2423.75   1
  -1  -2  -1 147396. 1956.85   2
   1  -2  -1 152692. 2629.72   3
   1  -2  -1 157558. 1820.32   2
  -1  -2   0 262148. 3130.70   3
   1   2   0 258875. 2995.54   1
  -1   2   0 257846. 3344.25   3
  -1   2   0 259413. 2971.47   1
  -1  -2   0 257850. 2992.33   1
   1   2   0 268587. 3098.77   3
   1  -2   0 263996. 2977.28   1
   1  -2   0 271624. 2784.90   2
   1  -2   0 265203. 3386.44   3
   1  -2   1 153595. 2571.84   3
  -1   2   1 145857. 2046.28   1
  -1  -2   1 155192. 2499.58   1
   1  -2   1 149887. 2447.47   1
   1  -2   1 151434. 2364.36   2
   1   2   1 149866. 2249.14   3
   1   2   1 148397. 2083.51   1
  -1   2   1 149183. 1758.03   2
  -1  -2   1 149318. 2509.88   3
  -1   2   1 150896. 2644.54   3
   1   2   2 60067.1 1457.82   3
   1   2   2 61049.5 1111.69   2
  -1   2   2 58454.8 1700.26   3
  -1  -2   2 59886.6 1683.67   1
  -1  -2   2 58046.8 1689.62   3
   1  -2   2 57562.1 1619.33   2
  -1   2   2 59565.3 920.288   2
   1   2   2 57829.1 1179.04   1
   1  -2   2 59600.0 1639.42   3
  -1   2   2 60033.0 1206.55   1
   1  -2   2 59811.4 1667.77   1
   1   2   3 21021.9 624.352   2
   1   2   3 19338.5 938.860   4
  -1   2   3 19881.6 1062.20   3
   1  -2   3 20372.0 1020.56   3
   1   2   3 19583.9 889.838   3
   1   2   3 19231.1 604.463   1
  -1   2   3 18524.2 451.344   2
   1  -2   3 18855.4 1016.12   1
  -1  -2   3 18944.4 1033.94   1
  -1  -2   4 5106.32 601.782   1
  -1  -2   4 5004.88 596.807   4
  -1   2   4 5971.21 653.684   4
   1   2   4 4917.71 269.344   1
   1   2   4 4865.03 338.711   2
   1  -2   4 4381.45 562.411   1
   1   2   4 4496.20 540.868   4
   1   2   4 5160.52 279.032   1
   1  -2   4 5511.09 610.143   3
   1   2   4 4806.47 505.425   3
  -1   2   4 5246.04 639.564   3
  -1   2   4 4635.43 251.856   2
   1   2   5 112999. 1699.49   2
  -1   2   5 109974. 1434.96   2
  -1   2   5 114990. 2900.54   4
  -1   2   5 104289. 2695.95   3
   1  -2   5 108875. 2686.27   1
   1   2   5 112597. 2754.62   4
   1  -2   5 111711. 2901.37   4
   1   2   5 107359. 2312.60   3
  -1  -2   5 106371. 2674.28   1
  -1  -2   5 108306. 2733.42   4
   1  -2   5 110834. 2683.23   3
   1   2   6 3983.26 617.059   4
  -1   2   6 4002.33 632.257   4
   1   2   6 4710.34 574.063   3
  -1   2   6 4480.89 653.900   3
  -1  -2   6 4674.96 690.012   4
   1  -2   6 4863.44 735.872   4
   1  -2   6 4106.97 605.514   1
  -1   2   6 5105.43 383.599   2
   1   2   6 4648.86 432.861   2
  -1  -2   6 4362.86 618.026   1
   1  -2   6 5165.44 683.325   3
   1   2   7 6544.83 847.016   4
   1  -2   7 6817.38 785.198   1
  -1  -2   7 5626.10 802.077   4
  -1  -2   7 7128.42 817.215   1
  -1   2   7 6626.47 835.629   3
   1   2   7 7001.55 728.552   3
  -1   2   7 7050.97 518.136   2
   1   2   7 7166.40 575.423   2
   1  -2   8 11842.7 1069.12   1
   1  -2   8 12742.1 1194.10   2
  -1  -2   8 11920.2 1076.12   1
   1   2   8 9363.96 897.437   3
   1   2   8 12721.0 818.428   2
  -1   2   8 12019.6 1145.95   3
   1  -2   9 25812.7 1782.89   2
  -1   2   9 29307.6 1837.77   3
   1   2   9 26092.0 1556.39   3
   1  -2   9 28787.6 1708.92   1
  -1   2   9 26572.6 1187.56   2
  -1  -2   9 26058.9 1616.18   1
   1   2   9 25537.0 1228.45   2
   1  -2  10 4371.25 833.803   2
   1  -2  10 5013.81 827.513   1
  -1   2  10 4105.40 843.345   3
  -1  -2  10 5637.87 867.181   1
  -1   2  10 4723.30 581.332   2
   1   2  10 4278.07 591.086   2
   1   2  10 4637.60 740.402   3
  -1  -2  11 7466.12 1020.19   1
  -1   2  11 6540.67 697.464   2
   1   2  11 7200.38 769.280   2
   1  -2  11 7839.25 1130.13   2
   1   2  11 6325.28 911.996   3
  -1   2  11 8810.37 1178.94   3
   1  -2  11 7030.07 989.403   1
   1  -2  12 169.486 583.837   2
  -1   2  12 1254.66 594.128   3
  -1  -2  12 710.128 492.913   1
   1   2  12 1189.38 522.848   3
   1  -2  12 20.3857 520.932   1
  -1   2  13 3618.94 920.966   3
   1   2  13 1415.98 623.211   3
   1  -2  13 2915.86 706.148   1
   1  -2  13 3413.24 900.396   2
  -1  -2  13 2146.69 675.903   1
   1  -2  14 1481.19 709.745   2
  -1  -2  14-471.957 622.262   2
  -1   2  14 1399.81 671.127   3
  -1  -2  15 1897.06 756.866   2
  -1   2  15 1274.00 612.520   3
   1  -2  15 375.899 645.248   2
  -1   3 -13 1258.19 823.662   4
   1   3 -13 113.272 638.271   4
  -1   3 -12 37530.1 2711.32   4
   1   3 -12 34601.5 2597.71   4
   1   3 -11 11709.7 1500.63   4
  -1   3 -11 9741.55 1365.56   4
  -1   3 -10 181361. 5254.25   4
   1   3 -10 176920. 5116.77   4
  -1   3  -9 2396.24 712.642   4
   1   3  -9 4000.57 885.692   4
  -1   3  -8 198427. 4898.21   4
   1   3  -8 197395. 4788.25   4
   1   3  -7 10634.3 1131.40   4
  -1   3  -7 10752.7 1168.05   4
  -1   3  -6 198728. 4214.73   1
  -1   3  -6 198357. 4425.88   4
   1   3  -6 195249. 4200.88   1
  -1  -3  -6 199673. 3675.90   3
  -1   3  -5 4992.89 683.705   1
   1  -3  -5 4457.55 641.933   3
  -1  -3  -5 5985.23 636.023   3
  -1   3  -5 5866.96 808.439   4
   1   3  -5 6422.25 771.504   1
   1  -3  -5 4634.88 256.386   1
   1   3  -5 5202.56 700.579   4
   1   3  -4 437280. 5775.85   1
  -1  -3  -4 437426. 5082.23   3
   1  -3  -4 450316. 5718.56   3
  -1  -3  -4 431660. 2770.40   2
   1  -3  -4 448885. 3141.14   1
  -1   3  -4 449086. 5942.85   4
   1   3  -4 455325. 5594.60   4
  -1   3  -4 460714. 5816.85   1
  -1   3  -3 21969.3 1258.45   3
  -1  -3  -3 21351.6 697.542   2
   1   3  -3 20243.7 1199.45   1
  -1  -3  -3 20282.4 1105.91   3
   1  -3  -3 22975.7 1282.85   3
   1   3  -3 22209.4 1179.07   4
  -1  -3  -3 20222.9 800.095   1
  -1   3  -3 21768.8 1225.73   1
   1  -3  -3 19246.3 756.852   1
  -1  -3  -2 719423. 5188.87   1
   1  -3  -2 770377. 5227.58   1
  -1  -3  -2 724324. 4590.71   2
   1  -3  -2 756985. 7112.93   3
  -1  -3  -2 736621. 6432.35   3
   1  -3  -2 767610. 4144.03   2
  -1   3  -2 738097. 6694.99   1
  -1   3  -2 731221. 6818.07   3
   1   3  -2 739706. 6810.89   1
  -1   3  -1 6133.04 691.177   3
   1   3  -1 4605.64 542.615   1
  -1  -3  -1 4871.85 494.697   1
   1  -3  -1 4633.89 416.992   2
   1   3  -1 5414.59 642.052   3
  -1   3  -1 5486.20 573.377   1
   1  -3  -1 4078.85 559.191   3
  -1  -3  -1 4418.17 551.133   3
   1  -3  -1 4539.19 490.646   1
   1   3   0 6481.66 662.477   3
  -1   3   0 6315.32 582.543   1
  -1   3   0 7262.63 727.749   3
   1  -3   0 5595.81 516.953   2
   1   3   0 6980.46 615.476   1
   1  -3   0 6209.27 575.801   1
  -1  -3   0 6041.21 625.713   3
  -1  -3   0 5615.63 567.258   1
   1  -3   0 4954.76 605.562   3
  -1  -3   1 6268.16 663.583   3
  -1   3   1 6230.75 698.110   3
   1   3   1 5447.61 586.092   3
   1  -3   1 7043.16 657.952   1
   1   3   1 6057.62 532.819   1
  -1  -3   1 6154.07 625.213   1
  -1   3   1 5586.45 515.111   1
   1  -3   1 5184.80 656.880   3
   1   3   2 751649. 6272.82   3
   1   3   2 745293. 5208.75   1
   1  -3   2 758064. 7016.89   3
  -1  -3   2 744562. 6998.57   3
  -1   3   2 768974. 7136.21   3
   1  -3   2 751142. 6767.37   1
  -1  -3   2 759332. 6835.20   1
  -1   3   2 744169. 5255.92   1
   1  -3   3 22141.3 1266.31   3
   1   3   3 22066.5 815.351   1
  -1  -3   3 20422.6 1211.06   1
   1  -3   3 20723.5 1216.08   1
  -1   3   3 21300.9 820.917   1
   1   3   3 20784.5 1102.87   3
  -1   3   3 21579.3 1269.97   3
  -1  -3   3 21172.3 1262.90   3
  -1   3   4 446115. 5816.50   3
  -1  -3   4 454479. 6028.85   3
   1  -3   4 439760. 5724.46   1
   1   3   4 452139. 5189.81   3
  -1  -3   4 442257. 5773.17   1
   1  -3   4 443980. 5771.09   3
   1   3   4 444598. 5432.90   4
   1   3   4 445735. 3150.90   1
   1   3   5 4994.34 679.857   4
  -1  -3   5 3560.37 617.061   1
   1   3   5 4046.81 232.180   1
   1  -3   5 3680.70 604.271   3
  -1  -3   5 4353.69 661.624   3
  -1   3   5 4739.97 695.476   3
  -1   3   5 5030.33 739.293   4
   1   3   5 4455.67 279.271   2
   1   3   5 4104.80 585.985   3
   1  -3   5 4485.33 672.084   1
   1  -3   6 206639. 4329.04   1
   1   3   6 210317. 4306.54   4
  -1  -3   6 195814. 4222.11   1
   1   3   6 196161. 1910.97   2
  -1   3   6 204041. 4435.90   4
  -1  -3   6 201120. 4265.48   4
   1   3   6 203002. 3812.02   3
   1  -3   6 202458. 4323.67   3
  -1   3   6 207173. 4312.12   3
  -1   3   7 9365.90 1036.29   3
   1   3   7 9251.88 469.602   2
   1  -3   7 8445.56 991.162   1
   1  -3   7 8362.00 972.578   3
  -1  -3   7 8839.81 1002.27   1
   1   3   7 10104.9 938.403   3
   1   3   8 195583. 2352.29   2
  -1  -3   8 188179. 4486.40   1
   1   3   8 194067. 4127.20   3
  -1   3   8 194950. 4611.22   3
  -1   3   8 183035. 1604.82   2
  -1   3   8 186831. 1642.97   2
   1  -3   8 193301. 4571.05   1
  -1   3   9 3099.75 278.503   2
  -1  -3   9 3416.78 696.511   1
  -1   3   9 4080.98 795.117   3
   1   3   9 2833.12 351.473   2
   1  -3   9 2738.11 759.599   2
   1   3   9 2957.47 639.749   3
   1  -3   9 3646.16 757.695   1
  -1   3   9 3108.01 287.678   2
  -1   3  10 171239. 4802.60   3
   1   3  10 181925. 4461.53   3
   1  -3  10 176427. 5064.36   2
   1   3  10 175185. 2699.28   2
  -1  -3  10 176631. 4695.06   1
   1  -3  10 171804. 4673.37   1
  -1   3  10 177925. 2314.73   2
  -1  -3  11 8354.29 1141.38   1
  -1   3  11 11196.5 1371.95   3
   1  -3  11 7901.38 1205.26   2
   1  -3  11 8371.45 1133.80   1
   1   3  11 8299.76 1079.68   3
  -1  -3  12 31502.4 2225.19   1
   1  -3  12 33819.9 2491.35   2
   1  -3  12 35187.5 2333.35   1
  -1   3  12 35221.0 2438.01   3
   1   3  12 35844.1 2227.86   3
   1   3  13-295.729 474.239   3
  -1   3  13-145.551 640.646   3
  -1  -3  13 780.596 505.454   1
   1  -3  13-68.9670 587.853   1
   1  -3  13 314.746 579.663   2
  -1  -3  14 20225.3 1920.79   1
   1  -3  14 18532.8 1808.45   1
   1  -3  14 14984.9 1857.70   2
  -1   3  14 15626.1 1833.20   3
  -1  -3  15 1340.73 954.862   2
  -1   3  15 619.545 631.767   3
  -1   4 -13 392.926 616.033   4
   1   4 -13-802.565 875.897   4
   1   4 -12 2431.09 821.371   4
  -1   4 -12 4387.20 1069.25   4
   1   4 -11 778.914 579.297   4
  -1   4 -11 324.336 672.291   4
   1   4 -10-266.104 574.763   4
  -1   4 -10 460.172 549.817   4
  -1   4  -9-35.6178 471.575   4
   1   4  -9 519.313 472.784   4
   1   4  -8 15604.4 1449.60   4
  -1   4  -8 17487.9 1615.10   4
  -1  -4  -7 8222.32 917.499   3
  -1   4  -7 11625.8 1273.26   4
   1   4  -7 9649.49 1137.74   4
   1   4  -6 40332.6 2057.84   4
  -1  -4  -6 35972.1 1786.80   3
  -1   4  -6 37172.1 2094.57   4
  -1  -4  -5 17400.8 1228.50   3
  -1   4  -5 20489.3 1516.54   4
   1  -4  -5 18301.3 691.245   1
   1  -4  -5 19469.2 1417.45   3
   1   4  -5 17401.3 1312.62   4
   1  -4  -4 7747.83 553.972   1
  -1  -4  -4 8640.11 867.792   3
  -1   4  -4 9369.21 1045.73   4
  -1   4  -4 9001.34 975.291   3
   1   4  -4 6971.01 850.524   1
  -1  -4  -4 8920.10 439.425   2
  -1  -4  -4 8352.56 580.160   1
  -1   4  -4 9307.44 979.198   1
   1   4  -4 9367.60 963.388   4
   1  -4  -4 8608.08 958.864   3
   1   4  -3 2183.49 468.578   1
  -1   4  -3 1321.13 433.884   1
   1  -4  -3 1478.00 467.874   3
   1  -4  -3 1286.30 302.512   1
  -1  -4  -3 1497.25 417.880   3
   1   4  -3 1287.76 415.389   4
   1  -4  -3 1944.89 225.030   2
  -1   4  -3 2273.00 582.643   3
  -1  -4  -3 1183.31 303.655   1
  -1  -4  -3 2141.36 285.448   2
   1  -4  -2 14460.8 873.331   1
  -1  -4  -2 15323.5 783.171   2
   1   4  -2 15266.8 1127.87   1
   1   4  -2 12703.1 1084.24   3
   1  -4  -2 13693.4 1124.11   3
  -1  -4  -2 14430.2 880.859   1
  -1   4  -2 14831.6 1100.00   1
   1  -4  -2 14408.2 701.974   2
  -1  -4  -2 14140.3 1091.32   3
  -1   4  -2 14047.1 1129.39   3
  -1   4  -1 3799.89 571.226   1
   1  -4  -1 2604.57 544.880   3
   1   4  -1 2704.10 564.192   3
   1  -4  -1 2976.66 458.952   1
   1   4  -1 3132.62 521.029   1
  -1   4  -1 3171.76 580.098   3
  -1  -4  -1 3681.90 610.280   3
  -1  -4  -1 2868.06 457.918   1
   1  -4  -1 1911.81 344.764   2
  -1  -4   0 43501.1 1882.77   3
   1  -4   0 41542.9 1479.15   2
  -1   4   0 43447.3 1905.76   3
   1  -4   0 42726.1 1930.73   3
  -1  -4   0 42041.5 1649.85   1
   1   4   0 44521.0 1725.68   1
   1  -4   0 44620.5 1693.88   1
   1   4   0 43439.1 1823.02   3
  -1   4   0 45609.4 1703.88   1
  -1  -4   1 3273.64 531.533   1
   1  -4   1 2307.75 513.749   3
  -1  -4   1 2758.45 562.352   3
  -1   4   1 3307.67 470.982   1
   1  -4   1 4135.82 597.264   1
  -1   4   1 3779.27 633.272   3
   1   4   1 3758.81 520.970   1
   1   4   1 3043.51 558.713   3
  -1  -4   2 14830.0 1169.66   3
  -1  -4   2 15212.5 1115.99   1
   1  -4   2 14322.9 1092.73   1
   1   4   2 14425.5 1062.40   3
   1  -4   2 14448.9 1175.14   3
  -1   4   2 13827.1 871.188   1
   1   4   2 13254.3 851.039   1
  -1   4   2 13140.9 1124.23   3
  -1  -4   3 2034.98 542.767   1
  -1   4   3 2005.32 540.011   3
  -1  -4   3 1406.89 502.266   3
   1  -4   3 1912.06 518.811   3
   1   4   3 725.640 429.638   3
   1   4   3 1855.18 323.633   1
   1  -4   3 1806.50 501.792   1
  -1   4   3 1580.22 323.529   1
   1  -4   4 8607.36 976.151   3
   1   4   4 8273.35 555.755   1
  -1  -4   4 9158.66 965.723   1
  -1  -4   4 8496.07 961.157   3
  -1   4   4 9272.04 1001.52   3
   1  -4   4 7886.51 938.805   1
  -1   4   4 7918.13 563.727   1
   1   4   4 9020.40 918.680   3
  -1   4   5 19074.6 1447.41   3
   1   4   5 18906.1 698.302   1
   1   4   5 19558.8 1382.30   4
   1  -4   5 19266.8 1469.66   3
   1  -4   5 17573.2 1373.93   1
   1   4   5 16756.8 1222.39   3
  -1  -4   5 17535.0 1353.72   1
  -1  -4   6 35321.8 2000.68   1
   1  -4   6 38937.3 2094.43   1
  -1   4   6 36752.8 2036.36   3
   1   4   6 38236.6 1868.68   3
  -1   4   7 9763.59 1134.53   3
   1   4   7 8446.53 990.695   3
   1  -4   7 9058.87 1107.92   1
  -1  -4   7 8959.09 1079.81   1
  -1  -4   8 14268.3 1393.24   1
   1  -4   8 17509.1 1543.62   1
  -1   4   8 13842.7 1364.37   3
   1   4   8 16885.8 1380.74   3
   1   4   9 380.252 401.836   3
  -1  -4   9 319.920 387.136   1
   1  -4   9 659.209 497.331   1
  -1   4   9 143.429 512.802   3
   1  -4   9-35.4456 455.300   2
  -1  -4  10-80.4533 494.089   1
   1  -4  10 425.282 658.468   2
  -1   4  10 894.932 614.902   3
   1   4  10-56.9067 451.470   3
   1  -4  10 430.736 517.732   1
  -1  -4  11 669.732 512.469   1
  -1   4  11 887.718 643.677   3
   1  -4  11 1762.01 734.215   2
   1   4  11 37.2380 490.357   3
   1  -4  11 871.687 507.947   1
  -1  -4  12 1959.06 717.476   1
  -1   4  12 2551.92 845.535   3
   1   4  12 4199.07 888.074   3
   1  -4  12 4652.10 1005.16   1
   1  -4  12 4046.41 1029.18   2
   1  -4  13-106.475 615.708   1
  -1   4  13 1533.23 774.561   3
  -1  -4  13 271.430 572.430   1
   1  -4  13-376.754 813.952   2
   1   4  13 120.027 683.368   3
  -1  -4  14 1924.50 752.672   1
   1  -4  14 2781.13 811.635   1
  -1   4  14 1694.77 746.782   3
   1   5 -12 42226.2 3051.75   4
  -1   5 -12 37458.7 2911.12   4
   1   5 -11 9793.01 1451.95   4
  -1   5 -11 9936.88 1540.51   4
   1   5 -10 95620.0 4090.37   4
  -1   5 -10 96289.2 4199.78   4
   1   5  -9 22317.7 1900.47   4
  -1   5  -9 19411.3 1888.67   4
   1   5  -8 59100.5 2940.77   4
  -1   5  -8 61986.4 3094.75   4
   1   5  -7 12264.3 1349.44   4
  -1   5  -7 11224.9 1385.53   4
  -1   5  -6 135164. 4262.13   4
   1  -5  -6 130372. 1848.03   1
   1   5  -5 12009.6 1221.38   4
  -1   5  -5 12692.7 1312.05   4
   1  -5  -5 11544.5 691.800   1
  -1  -5  -5 10234.2 1091.35   3
   1   5  -4 122785. 3559.94   4
  -1  -5  -4 123865. 2548.30   1
  -1  -5  -4 115482. 3467.69   3
  -1  -5  -4 119538. 1826.50   2
  -1   5  -4 117895. 3689.89   3
   1  -5  -4 118322. 2443.21   1
  -1  -5  -3 45309.6 1355.96   2
  -1   5  -3 47912.8 2327.92   3
  -1  -5  -3 44106.5 2155.35   3
  -1  -5  -3 45272.6 1661.82   1
   1  -5  -3 46895.0 1239.33   2
   1  -5  -3 43382.8 1609.02   1
   1   5  -2 427673. 6646.36   3
   1  -5  -2 446225. 5406.34   1
  -1  -5  -2 422481. 4620.99   2
  -1   5  -2 432208. 6762.25   3
  -1   5  -2 424247. 6361.64   1
  -1  -5  -2 430458. 6675.15   3
  -1  -5  -2 427689. 5306.76   1
   1  -5  -2 437964. 4459.83   2
   1   5  -2 431108. 6433.49   1
  -1  -5  -1 11546.3 1149.10   3
   1  -5  -1 11140.7 831.409   2
  -1   5  -1 9986.07 1107.28   3
   1   5  -1 11403.2 1042.17   1
   1  -5  -1 11215.1 1155.34   3
  -1  -5  -1 11122.2 934.200   1
   1  -5  -1 10875.2 924.978   1
   1   5  -1 10723.1 1098.70   3
  -1   5  -1 10417.1 983.217   1
  -1   5   0 91690.9 2733.27   1
  -1  -5   0 96828.7 3208.60   3
   1  -5   0 90670.9 2437.66   2
  -1   5   0 95467.3 3150.51   3
   1  -5   0 96071.7 3254.56   3
   1  -5   0 96679.3 2794.11   1
   1   5   0 96349.9 3035.37   3
  -1  -5   0 90134.2 2703.02   1
   1   5   0 95335.6 2806.94   1
   1  -5   1 11945.1 1220.06   3
   1   5   1 10513.5 922.896   1
   1  -5   1 11721.5 1043.98   1
  -1  -5   1 12027.3 1171.13   3
  -1   5   1 10214.9 887.708   1
   1  -5   1 8885.73 871.447   2
  -1   5   1 11278.3 1157.90   3
  -1  -5   1 9826.75 980.619   1
   1   5   1 9653.73 1037.12   3
  -1  -5   2 423252. 6327.48   1
   1  -5   2 436539. 6433.54   1
  -1   5   2 442071. 6842.78   3
   1   5   2 425610. 5339.03   1
  -1   5   2 450537. 5525.98   1
   1   5   2 436752. 6359.00   3
   1   5   3 41045.3 1578.10   1
  -1   5   3 43894.7 1639.27   1
  -1   5   3 43599.9 2225.11   3
   1  -5   3 43917.2 2152.15   1
  -1  -5   3 43645.9 2139.06   1
   1   5   3 42454.6 2039.54   3
   1   5   4 122581. 2479.78   1
  -1  -5   4 123503. 3706.05   1
   1   5   4 119303. 3434.70   3
  -1   5   4 123568. 3781.36   3
  -1   5   4 124237. 2555.33   1
   1  -5   4 120861. 3679.65   1
   1  -5   5 10742.8 1197.70   1
   1   5   5 10395.3 668.855   1
  -1   5   5 10379.6 1236.58   3
  -1  -5   5 12970.2 1315.64   1
  -1   5   5 10473.0 687.942   1
   1   5   5 9440.50 1069.79   3
   1   5   6 136352. 1889.11   1
  -1   5   6 138498. 4203.59   3
  -1  -5   6 139763. 4236.38   1
   1  -5   6 136830. 4194.49   1
   1   5   6 133381. 3805.81   3
   1  -5   7 11322.7 1350.74   1
   1   5   7 12248.3 1272.84   3
  -1   5   7 11214.4 1341.69   3
  -1  -5   7 11981.6 1327.44   1
   1   5   8 55790.2 2650.62   3
   1  -5   8 56560.8 2918.33   1
  -1  -5   8 57107.3 2936.12   1
  -1   5   8 57196.7 2903.04   3
  -1  -5   9 22657.2 1933.74   1
   1   5   9 20694.6 1697.16   3
  -1   5   9 24075.1 1979.76   3
   1  -5   9 24006.4 2063.26   2
   1  -5   9 21423.5 1922.50   1
   1   5  10 92322.7 3643.48   3
  -1   5  10 94989.7 3994.18   3
   1  -5  10 91801.1 3952.02   1
  -1  -5  10 95601.8 4032.78   1
   1  -5  10 91846.0 4173.25   2
  -1  -5  11 7971.57 1314.32   1
   1  -5  11 12659.6 1656.74   2
   1   5  11 9491.79 1269.88   3
  -1   5  11 9423.59 1372.27   3
   1  -5  11 10043.9 1429.05   1
  -1  -5  12 39878.6 2873.96   1
  -1   5  12 37485.4 2763.82   3
   1  -5  12 44042.1 3150.39   2
   1   5  12 34656.1 2442.02   3
   1  -5  12 36640.7 2720.73   1
  -1  -5  13 3364.70 887.061   1
  -1   5  13 2571.00 975.273   3
   1  -5  13 2547.71 842.220   1
  -1   5  14 30330.7 2683.52   3
   1   6 -11 8568.76 1355.38   4
  -1   6 -11 6304.72 1260.60   4
   1   6 -10 353.467 571.749   4
  -1   6 -10 583.058 645.955   4
   1   6  -9 774.705 670.954   4
  -1   6  -9 595.060 694.752   4
   1   6  -8 1345.79 715.159   4
  -1   6  -8 1015.49 584.851   4
   1   6  -7 5318.80 1008.70   4
  -1   6  -7 4271.70 965.148   4
   1   6  -6 1896.60 766.630   4
   1  -6  -6 696.818 264.553   1
  -1   6  -6 2707.22 739.794   4
  -1  -6  -5 8404.46 721.410   1
   1   6  -5 6563.82 991.120   4
   1  -6  -5 8357.11 706.851   1
  -1   6  -5 7168.04 1119.24   4
   1   6  -4 6420.81 991.832   4
  -1  -6  -4 7737.68 767.352   1
  -1   6  -4 7719.39 1114.73   3
   1  -6  -4 6379.94 685.076   1
   1  -6  -4 6230.15 388.599   2
  -1  -6  -4 6718.96 511.373   2
   1  -6  -4 5789.80 368.984   2
   1  -6  -3 18271.1 1188.85   1
  -1  -6  -3 17470.8 970.292   2
  -1   6  -3 17551.3 1595.20   3
   1  -6  -3 14563.3 811.583   2
  -1  -6  -3 16227.2 1152.25   1
  -1  -6  -2 3342.19 497.261   2
   1   6  -2 3047.10 778.945   3
  -1  -6  -2 3154.16 568.843   1
   1  -6  -2 2878.81 555.792   1
  -1   6  -2 3888.89 887.758   3
   1  -6  -2 1744.54 424.916   2
   1   6  -1 11191.6 1233.41   3
  -1   6  -1 13013.5 1341.92   3
   1  -6  -1 12944.7 1116.36   1
   1  -6  -1 11129.5 916.144   2
  -1  -6  -1 12471.9 1098.47   1
   1  -6   0-110.078 333.957   2
   1   6   0-373.840 498.039   3
   1  -6   0-158.589 367.218   1
  -1  -6   0 34.2811 394.139   1
  -1   6   0 275.687 449.244   3
  -1   6   1 11882.8 1294.20   3
  -1   6   1 11900.9 1069.95   1
   1   6   1 10925.1 1046.30   1
  -1  -6   1 12050.8 1179.61   1
   1  -6   1 12351.7 1215.55   1
   1  -6   1 11592.8 1076.22   2
   1   6   1 13010.9 1297.27   3
  -1  -6   2 3894.79 767.743   1
  -1   6   2 3356.49 820.164   3
   1  -6   2 5165.89 849.108   1
  -1   6   2 4018.07 610.319   1
   1  -6   2 2814.96 666.996   2
   1   6   2 4894.05 878.895   3
   1   6   2 3277.55 565.855   1
  -1  -6   3 16573.8 1482.91   1
  -1   6   3 14990.4 1109.16   1
   1   6   3 15040.2 1381.23   3
   1   6   3 14263.0 1091.20   1
  -1   6   3 17314.3 1557.93   3
   1  -6   3 16397.6 1473.36   1
   1   6   4 4799.14 878.082   3
   1   6   4 5536.01 650.813   1
  -1   6   4 6008.20 672.488   1
  -1  -6   4 5975.00 948.675   1
   1  -6   4 5967.51 938.142   1
  -1   6   4 5765.86 994.934   3
  -1  -6   5 7779.97 1118.36   1
   1   6   5 7801.44 1064.48   3
  -1   6   5 7389.54 687.502   1
   1   6   5 8153.75 706.281   1
   1  -6   5 7020.55 1062.74   1
  -1   6   5 7191.15 1133.22   3
  -1  -6   6 2410.38 809.915   1
  -1   6   6 1961.27 758.577   3
   1  -6   6 2639.51 825.955   1
   1   6   6 2654.24 741.685   3
  -1   6   7 4554.25 943.413   3
   1   6   7 3983.07 810.983   3
  -1  -6   7 4303.51 939.464   1
   1  -6   7 4536.20 994.015   2
   1  -6   7 4233.53 918.030   1
  -1  -6   8 414.236 591.344   1
  -1   6   8 348.981 615.100   3
   1  -6   8 551.555 486.795   2
   1   6   8 96.5045 584.207   3
   1  -6   8 589.740 608.363   1
  -1  -6   9 1453.22 709.418   1
   1   6   9-2.76096 455.028   3
  -1   6   9 277.022 608.828   3
   1  -6   9 219.805 527.691   2
   1  -6   9 667.835 612.845   1
   1  -6  10-842.897 864.344   2
   1   6  10-1327.27 666.602   3
  -1  -6  10 606.730 536.847   1
   1  -6  10 597.161 600.717   1
  -1   6  10 178.951 581.735   3
   1  -6  11 6148.90 1278.89   1
   1   6  11 7063.49 1208.93   3
  -1   6  11 5452.00 1222.93   3
   1  -6  11 5014.78 1196.17   2
  -1  -6  11 6369.82 1267.59   1
   1  -6  12 1891.06 812.293   1
  -1   6  12 1140.76 710.125   3
  -1  -6  12 2824.61 932.189   1
  -1   6  13 1391.59 543.028   3
   1   7 -10 37044.2 2813.93   4
  -1   7 -10 34134.3 2817.89   4
   1   7  -9-161.876 585.996   4
  -1   7  -9 1715.70 952.832   4
  -1   7  -8 64060.3 3605.14   4
   1   7  -8 62964.1 3394.88   4
   1   7  -7 12308.6 1550.32   4
  -1   7  -7 11440.0 1600.35   4
  -1   7  -6 251861. 6632.73   4
   1   7  -6 253419. 6333.06   4
  -1  -7  -5 5830.29 696.880   1
  -1   7  -5 5581.34 1097.64   4
   1  -7  -5 5285.43 645.429   1
   1  -7  -4 33417.3 1031.59   2
  -1  -7  -4 32345.2 1700.58   1
   1  -7  -4 34692.4 1703.17   1
  -1  -7  -4 28614.8 1109.37   2
   1   7  -4 30267.2 2118.36   4
  -1   7  -4 36915.3 2489.06   3
  -1   7  -3 14812.1 1583.03   3
  -1  -7  -3 13395.3 1170.24   1
   1  -7  -3 12254.6 861.038   2
  -1  -7  -3 13352.2 943.142   2
   1  -7  -3 14948.0 1191.39   1
   1  -7  -2 121900. 2973.75   2
  -1   7  -2 124297. 4381.70   3
  -1  -7  -2 125945. 3598.22   1
   1  -7  -2 120630. 3503.59   1
  -1  -7  -2 119710. 3019.81   2
   1   7  -2 132344. 4450.49   3
  -1  -7  -1 5677.35 858.541   1
  -1   7  -1 6100.47 1049.64   3
   1   7  -1 5173.21 981.078   3
   1  -7  -1 5633.83 848.080   1
   1  -7  -1 3364.79 616.760   2
   1  -7   0 67261.0 2588.57   2
   1   7   0 67276.2 3118.64   3
   1  -7   0 61915.5 2728.31   1
  -1  -7   0 69245.3 2852.42   1
  -1   7   0 71986.7 3319.17   3
  -1   7   1 4315.20 898.310   3
   1  -7   1 2789.86 681.128   1
   1  -7   1 3258.79 666.900   2
   1   7   1 4600.12 907.191   3
  -1  -7   1 4573.12 844.605   1
  -1   7   2 123022. 4327.80   3
   1  -7   2 124158. 4091.36   1
  -1  -7   2 125420. 4109.61   1
   1  -7   2 120870. 3829.73   2
   1   7   2 124177. 4145.85   3
  -1   7   3 12077.6 1118.45   1
  -1  -7   3 12887.8 1448.84   1
  -1   7   3 11203.1 1435.84   3
   1  -7   3 11310.8 1302.61   2
   1  -7   3 11020.6 1315.06   1
   1   7   3 10370.9 1021.87   1
   1   7   3 13847.5 1470.34   3
   1  -7   4 32414.2 2285.73   1
  -1  -7   4 33371.9 2311.77   1
  -1   7   4 33563.3 1734.27   1
   1   7   4 30106.0 2132.38   3
  -1   7   4 34089.0 2379.50   3
   1   7   4 33078.8 1707.99   1
   1  -7   4 34061.8 2239.31   2
   1  -7   5 4094.19 898.878   1
  -1  -7   5 4846.35 1011.59   1
   1   7   5 4993.51 1004.75   3
   1  -7   5 4308.84 965.533   2
  -1   7   5 6161.54 1094.51   3
  -1  -7   6 251527. 6545.46   1
   1   7   6 251306. 6136.92   3
  -1   7   6 251326. 6562.42   3
   1  -7   6 250371. 6519.19   2
   1  -7   6 256238. 6621.08   1
   1  -7   7 10737.1 1509.50   1
   1   7   7 11848.5 1454.49   3
  -1  -7   7 11336.6 1528.78   1
  -1   7   7 12629.9 1596.29   3
   1  -7   7 13316.2 1633.12   2
  -1   7   8 62111.4 3462.54   3
  -1  -7   8 67473.5 3666.05   1
   1  -7   8 64379.4 3633.37   2
   1  -7   8 67195.6 3647.82   1
   1   7   8 62836.1 3224.42   3
  -1  -7   9 565.168 594.330   1
   1  -7   9 1958.75 786.682   1
   1  -7   9 361.784 598.233   2
   1   7   9 52.9251 507.145   3
  -1   7   9 1130.72 744.556   3
   1  -7  10 39730.2 3092.80   2
  -1   7  10 36072.1 2871.73   3
   1   7  10 36008.7 2619.05   3
  -1  -7  10 38108.3 2970.07   1
   1  -7  10 34486.8 2826.55   1
  -1   7  11 438.713 747.984   3
   1   8  -9 944.346 813.342   4
   1   8  -8-560.323 806.916   4
  -1   8  -8 207.658 535.315   4
  -1   8  -7 108.525 515.356   4
   1   8  -7-217.170 479.223   4
   1   8  -6 1023.65 634.571   4
  -1   8  -6 129.246 781.532   4
   1   8  -5 50.5533 486.903   4
  -1   8  -5-738.749 733.691   4
   1  -8  -4 1516.99 524.206   1
   1   8  -4 1965.53 740.181   4
  -1   8  -4 3194.09 901.920   3
  -1  -8  -4 1401.00 498.188   1
  -1   8  -3 6942.07 1221.03   3
  -1  -8  -3 8015.95 1009.67   1
   1  -8  -3 7180.98 945.288   1
   1  -8  -2 2771.56 593.806   2
  -1   8  -2 1627.86 715.833   3
   1  -8  -2 3713.70 730.983   1
  -1  -8  -2 3996.31 776.747   1
   1   8  -2 3621.82 982.530   3
   1  -8  -1 3211.37 725.411   1
  -1   8  -1 4125.14 984.652   3
  -1  -8  -1 5140.86 912.476   1
   1   8  -1 3721.64 932.882   3
   1  -8  -1 4411.31 760.965   2
   1  -8   0 7592.17 1113.05   1
  -1   8   0 9259.86 1380.52   3
   1  -8   0 7760.21 1028.61   2
  -1  -8   0 8418.17 1144.42   1
   1   8   0 7395.58 1223.25   3
   1  -8   1 4018.29 829.197   1
  -1  -8   1 4611.91 932.569   1
  -1   8   1 4680.10 1046.97   3
   1  -8   1 4294.84 843.821   2
   1   8   1 5048.52 1035.82   3
   1   8   2 4564.72 1003.53   3
   1  -8   2 4330.97 893.032   2
  -1   8   2 3766.86 939.125   3
  -1  -8   2 4944.36 1003.36   1
   1  -8   2 4221.31 927.265   1
   1  -8   3 7744.76 1151.71   2
   1  -8   3 7698.88 1199.77   1
  -1  -8   3 7785.74 1231.68   1
   1   8   3 7268.33 1204.82   3
  -1   8   3 6139.88 1205.40   3
  -1   8   4 2795.74 889.529   3
   1  -8   4 1485.15 671.492   2
  -1  -8   4 2043.70 819.130   1
   1   8   4 1606.06 684.165   3
   1  -8   4 2662.23 839.432   1
   1   8   5 330.043 492.717   3
   1  -8   5-86.1117 580.249   2
  -1   8   5-313.469 704.075   3
  -1  -8   5-54.8778 740.691   1
   1  -8   5 483.911 543.218   1
   1  -8   6 868.207 701.864   1
   1  -8   6 499.977 583.164   2
  -1   8   6 117.126 611.741   3
   1   8   6 1205.13 737.146   3
  -1  -8   6-151.820 642.801   1
   1  -8   7-249.536 584.361   1
  -1  -8   7 477.812 672.964   1
   1   8   7 1032.12 603.903   3
  -1   8   7-88.6194 857.332   3
   1  -8   7 1188.64 897.632   2
   1  -8   8 12.3561 859.956   2
   1  -8   8-313.054 781.554   1
  -1  -8   8 76.6955 733.489   1
  -1   8   8-243.212 852.530   3
   1   8   9 465.193 573.125   3
  -1   8   9 897.206 695.886   3
   1   8  10 584.689 583.467   3
   1   9  -7 1065.12 689.830   4
   1   9  -6 36927.0 2847.52   4
  -1   9  -6 43089.6 3183.95   4
   1   9  -5 253.206 616.506   4
  -1   9  -5 2708.47 926.512   4
   1   9  -4 20230.1 2080.85   4
   1  -9  -3 3323.89 768.431   1
  -1   9  -3 2270.18 916.604   3
  -1  -9  -3 2723.60 674.803   1
  -1  -9  -2 99696.5 3849.12   1
  -1   9  -2 99618.9 4640.24   3
   1  -9  -2 103752. 3881.22   1
  -1   9  -1 173.240 738.551   3
   1   9  -1 1937.17 883.021   3
   1  -9  -1 2361.37 709.557   1
  -1  -9  -1 1744.07 655.561   1
   1  -9   0 48079.8 2554.06   2
  -1   9   0 43958.4 3074.26   3
   1   9   0 48389.8 3187.84   3
  -1  -9   0 45274.4 2781.62   1
   1  -9   0 45256.1 2769.22   1
   1  -9   1 1517.52 604.348   2
   1  -9   1 1521.99 816.951   1
   1   9   1 1551.40 784.548   3
  -1   9   1 1692.70 802.659   3
  -1  -9   1 1659.20 847.962   1
  -1  -9   2 107481. 4437.36   1
   1  -9   2 103341. 4381.12   1
   1   9   2 100735. 4481.55   3
   1  -9   2 99015.1 4039.07   2
  -1   9   2 102318. 4641.41   3
   1  -9   3 2029.31 822.323   2
   1   9   3 2904.70 953.855   3
  -1  -9   3 1746.79 719.110   1
  -1   9   3 1300.34 716.930   3
   1  -9   3 1597.41 750.569   1
   1  -9   4 19300.3 2024.73   2
  -1   9   4 20400.4 2185.76   3
  -1  -9   4 22332.5 2142.90   1
   1  -9   4 21911.3 2168.51   1
   1   9   4 20971.9 2099.38   3
   1  -9   5-78.9853 705.660   2
   1   9   5 659.691 743.096   3
   1  -9   5 699.213 652.023   1
  -1  -9   5 1282.03 714.561   1
  -1   9   5 897.998 707.521   3
   1   9   6 37619.6 2862.76   3
   1  -9   6 39563.6 3083.45   2
  -1   9   6 39803.4 3076.42   3
   1   9   7 1596.27 675.506   3
   1   9   8 11273.6 1646.26   3
   1  10  -4-432.051 803.448   4
   1  10  -3 569.562 816.245   4
   1 -10  -1-463.034 717.373   1
  -1 -10  -1-78.5143 672.443   1
   1 -10   0 1280.00 743.163   1
  -1 -10   0 2165.28 902.397   1
   1 -10   1-1193.06 725.729   1
  -1 -10   1-863.148 666.323   1
  -1 -10   2 264.151 537.568   1
   1 -10   2-159.597 462.332   2
   1 -10   2 375.667 599.607   1
   1 -10   3-72.2931 553.566   2
   1 -10   4 649.970 505.592   2
  -2   0 -14 48921.1 3266.47   4
   2   0 -14 50552.6 3318.78   4
   2   0 -13 16963.0 1909.93   4
  -2   0 -13 20362.3 2028.17   4
  -2   0 -12 150420. 5000.48   4
   2   0 -12 152431. 5104.56   4
  -2   0 -11 16178.1 1630.29   4
  -2   0 -11 13591.7 1060.02   1
   2   0 -11 12937.8 1495.17   4
   2   0 -11 15858.3 1140.16   1
  -2   0 -10 59831.8 2833.52   4
   2   0 -10 51917.7 1974.23   1
  -2   0 -10 54563.5 2005.75   1
   2   0 -10 56095.9 2766.67   4
  -2   0  -9 36996.6 2126.72   4
  -2   0  -9 37520.4 1593.99   1
   2   0  -9 38385.6 2183.89   4
   2   0  -9 35339.7 1566.33   1
   2   0  -8 377291. 4897.22   1
   2   0  -8 389885. 6340.50   4
  -2   0  -8 375787. 4813.99   1
  -2   0  -8 380390. 6245.70   4
   2   0  -7 24658.9 1521.92   4
  -2   0  -7 24284.7 1489.03   4
   2   0  -7 22462.2 1159.70   1
  -2   0  -7 22333.0 1134.34   1
  -2   0  -6 457055. 4793.06   1
   2   0  -6 481017. 4980.14   1
   2   0  -6 489588. 6055.85   4
  -2   0  -6 468331. 5872.18   4
  -2   0  -5 127161. 2787.74   4
  -2   0  -5 126923. 2388.48   1
   2   0  -5 125776. 2809.19   4
   2   0  -5 124693. 2426.68   1
  -2   0  -4 305522. 3507.11   1
   2   0  -4 305477. 3623.12   1
  -2   0  -4 306034. 3926.22   2
   2   0  -4 304781. 3900.57   4
  -2   0  -4 303450. 3830.06   4
  -2   0  -3 50856.4 1384.97   4
  -2   0  -3 53324.4 1398.81   1
   2   0  -3 54329.9 1446.27   4
  -2   0  -3 50572.0 1508.52   2
   2   0  -3 52460.1 1437.67   1
   2   0  -2 70601.8 1612.29   2
  -2   0  -2 65881.1 1317.10   4
  -2   0  -2 68857.3 1624.64   2
  -2   0  -1 161556. 1660.28   4
  -2   0  -1 161234. 2343.60   2
  -2   0  -1 164054. 1338.26   3
   2   0  -1 165237. 2328.39   2
   2   0   0 999999. 5633.47   2
  -2   0   0 990307. 5630.43   2
  -2   0   1 149058. 2228.97   2
   2   0   1 154723. 2282.24   2
  -2   0   2 83825.8 1759.48   2
  -2   0   2 81218.2 1472.84   4
   2   0   2 83329.5 1508.90   4
   2   0   2 81217.1 1679.37   1
   2   0   2 82678.5 1788.62   2
   2   0   3 46196.4 778.369   3
   2   0   3 45728.3 1329.31   4
  -2   0   3 45057.6 1326.78   4
   2   0   3 46143.4 1327.41   1
   2   0   3 46018.2 1435.82   2
  -2   0   3 45091.5 1380.57   2
  -2   0   4 310655. 3922.89   4
   2   0   4 313746. 3644.97   1
   2   0   4 296318. 3860.42   4
   2   0   4 301565. 3909.44   2
  -2   0   4 319200. 3872.01   2
  -2   0   5 118215. 2706.22   4
   2   0   5 119728. 2670.51   2
  -2   0   5 122209. 2412.80   1
   2   0   5 119672. 2367.09   1
   2   0   5 121848. 2779.37   4
   2   0   6 476791. 4920.55   1
   2   0   6 473188. 5626.84   2
  -2   0   6 478051. 5010.78   1
   2   0   6 478456. 6020.48   4
  -2   0   6 472670. 5983.30   4
   2   0   7 20864.9 1299.63   2
  -2   0   7 19980.9 1356.72   4
   2   0   7 20415.7 1079.33   1
  -2   0   7 20713.5 1114.63   1
   2   0   7 20717.0 1407.18   4
  -2   0   8 388383. 4963.27   1
   2   0   8 384028. 5735.15   2
   2   0   8 395288. 4902.47   1
  -2   0   9 37018.5 1608.94   1
   2   0   9 36724.5 1593.19   1
   2   0   9 31991.5 1805.02   2
   2   0  10 54086.8 2008.02   1
  -2   0  10 51951.9 1992.19   1
   2   0  10 53165.0 2422.56   2
   2   0  11 17903.6 1530.32   2
   2   0  11 16788.8 1185.66   1
   2   0  12 138508. 3851.83   3
   2   0  12 141459. 4325.47   2
   2   0  12 150562. 3531.09   1
  -2   0  13 18831.5 1859.87   3
   2   0  13 16030.6 1430.19   3
   2   0  13 17294.5 1623.36   2
  -2   0  14 42765.3 2928.44   3
   2   0  14 38757.0 2506.90   2
  -2   0  15 1441.34 782.180   3
  -2   1 -14 1030.04 721.557   4
  -2  -1 -14 325.823 753.389   4
   2   1 -14 1361.48 711.148   4
  -2  -1 -13 468.592 674.849   4
   2   1 -13 955.346 636.105   4
  -2   1 -13 610.606 525.467   4
  -2  -1 -12 346.747 411.003   4
   2   1 -12 516.421 638.403   4
  -2   1 -12-12.7392 622.866   4
  -2   1 -11 5296.68 1021.52   4
   2   1 -11 4647.25 969.464   4
  -2  -1 -11 5249.93 1014.25   4
   2  -1 -11 4695.45 988.943   4
  -2   1 -10 448.313 331.361   1
   2  -1 -10 433.903 223.108   1
   2  -1 -10 102.362 442.012   4
   2   1 -10 339.852 401.033   4
   2   1 -10-691.260 394.389   1
  -2  -1 -10-135.786 535.292   4
  -2   1 -10-208.544 676.344   4
   2   1  -9 18328.1 1526.53   4
  -2  -1  -9 16697.3 1436.06   4
  -2   1  -9 15587.0 1181.29   1
  -2   1  -9 15964.0 1467.51   4
   2  -1  -9 17785.5 1544.88   4
   2  -1  -9 16690.9 929.395   1
   2   1  -9 16748.5 1227.29   1
   2  -1  -8 18689.4 1461.19   4
  -2   1  -8 19060.0 1232.51   1
  -2   1  -8 18356.1 1445.60   4
   2   1  -8 18267.5 1429.94   4
   2   1  -8 17121.0 1192.36   1
  -2  -1  -8 17200.7 1357.10   4
   2  -1  -8 18756.5 947.462   1
   2  -1  -7 33669.7 1810.12   4
  -2  -1  -7 29260.5 1602.34   4
   2  -1  -7 29381.9 1130.42   1
   2   1  -7 27794.5 1455.31   1
  -2   1  -7 33572.5 1788.08   4
   2   1  -7 34626.0 1803.14   4
  -2   1  -7 30547.7 1499.08   1
  -2  -1  -6 35766.2 1612.64   4
   2   1  -6 37844.7 1727.13   4
   2   1  -6 35691.3 1548.53   1
  -2   1  -6 33729.2 1674.11   4
  -2   1  -6 33728.9 1496.54   1
   2  -1  -6 35985.3 1198.78   1
  -2  -1  -5 1319.77 297.217   2
  -2   1  -5 1285.28 394.057   4
   2   1  -5 2092.08 466.925   4
   2   1  -5 1482.31 348.181   1
  -2   1  -5 1465.28 341.337   1
   2  -1  -5 1225.38 268.136   1
  -2  -1  -5 2237.65 446.717   4
  -2  -1  -4 3609.01 459.505   4
   2   1  -4 3165.11 465.958   1
   2  -1  -4 2783.93 346.425   1
  -2   1  -4 3724.53 520.143   4
  -2  -1  -4 3967.68 446.424   2
   2   1  -4 3318.77 466.287   4
  -2   1  -4 3817.03 495.506   1
  -2   1  -3 34590.1 1278.87   4
  -2   1  -3 35165.6 1300.65   1
   2   1  -3 36871.9 1184.59   4
  -2  -1  -3 39293.5 1162.30   4
   2   1  -3 36168.5 1341.52   1
  -2   1  -3 36491.5 1392.81   2
   2  -1  -3 37870.7 1146.50   2
  -2  -1  -3 35947.9 1186.51   2
  -2   1  -2 138937. 2504.67   2
  -2   1  -2 146559. 1979.34   3
   2   1  -2 142239. 2508.69   1
  -2  -1  -2 143914. 1788.08   4
   2  -1  -2 147733. 2120.59   2
   2  -1  -2 145257. 2467.00   3
  -2   1  -2 146844. 2502.28   1
   2   1  -2 146858. 1901.70   4
  -2  -1  -2 146726. 2272.99   2
  -2   1  -2 149120. 2400.29   4
  -2  -1  -1 156791. 2322.02   2
   2  -1  -1 157479. 2207.92   2
  -2   1  -1 157598. 2460.58   1
   2  -1  -1 159794. 2362.16   3
  -2   1  -1 157180. 2121.09   3
   2   1  -1 159813. 2521.69   1
   2   1  -1 160076. 1423.32   4
   2  -1  -1 161304. 2284.30   1
  -2   1  -1 160672. 2490.01   2
   2   1  -1 160278. 2533.65   2
  -2   1   0 45424.5 1205.72   3
   2  -1   0 48051.3 1205.53   3
  -2  -1   0 46318.5 1303.80   2
   2   1   0 47561.6 1313.70   2
   2  -1   0 45337.8 1277.84   1
   2   1   0 46441.1 1286.96   1
   2  -1   0 47275.9 1277.55   2
  -2   1   0 45179.1 1272.78   1
  -2   1   0 44597.7 1254.90   2
   2  -1   1 156369. 2076.83   3
   2  -1   1 157743. 2484.44   1
   2   1   1 160038. 1347.70   4
  -2   1   1 158300. 2397.85   3
   2   1   1 157784. 2318.86   2
  -2   1   1 153755. 2168.28   2
   2  -1   1 159876. 2523.96   2
  -2  -1   1 160122. 2537.43   2
   2   1   2 140829. 2212.96   2
  -2   1   2 142100. 2079.21   2
   2  -1   2 142474. 2490.51   1
   2  -1   2 142659. 2554.20   2
  -2  -1   2 140210. 1841.94   4
  -2   1   2 141668. 2473.95   3
   2   1   2 140185. 1815.77   4
  -2  -1   2 147966. 2579.39   1
   2  -1   2 146330. 1986.56   3
  -2  -1   2 139690. 2517.71   2
   2  -1   3 36459.2 1347.13   1
  -2   1   3 37018.9 1400.71   3
   2  -1   3 36568.5 1060.97   3
  -2   1   3 36044.3 1090.61   2
  -2  -1   3 35691.4 1142.75   4
   2   1   3 35327.7 1065.94   1
  -2   1   3 36246.4 1310.86   4
   2   1   3 36913.5 1186.21   2
   2  -1   3 36185.4 1403.00   2
   2   1   3 37630.2 708.691   3
   2   1   3 35461.4 1139.22   4
  -2  -1   3 38019.3 1384.73   1
  -2   1   4 3036.98 382.914   2
   2  -1   4 3126.30 464.039   1
   2   1   4 3644.00 451.876   4
   2  -1   4 4032.84 551.971   4
   2   1   4 3556.15 290.850   3
   2   1   4 2427.44 368.548   2
   2   1   4 4428.64 420.616   1
   2  -1   4 3085.70 512.886   2
  -2   1   4 3370.97 534.988   3
   2  -1   4 3281.00 390.586   3
  -2  -1   4 4041.56 522.049   1
  -2   1   4 3887.95 498.160   4
  -2  -1   4 3978.48 471.915   4
   2  -1   5 1613.90 334.351   3
   2   1   5 1485.64 289.421   1
   2   1   5 2385.00 453.102   4
  -2  -1   5 1403.77 365.730   4
   2  -1   5 1719.04 447.854   4
   2  -1   5 1777.42 482.145   2
  -2   1   5 1667.84 476.285   3
   2   1   5 1591.08 365.111   2
  -2   1   5 2167.78 347.254   2
   2   1   5 1731.49 269.174   3
  -2   1   5 1843.42 454.819   4
  -2  -1   5 1812.28 427.465   1
   2  -1   5 1625.78 402.429   1
   2  -1   6 36243.9 1552.63   1
  -2   1   6 34511.5 1330.99   2
  -2  -1   6 35714.0 1580.46   1
  -2   1   6 37072.3 1756.67   4
   2   1   6 34831.9 1171.40   3
  -2  -1   6 33567.5 1589.75   4
   2  -1   6 35274.6 1389.56   3
   2   1   6 34553.9 1173.13   1
   2   1   6 35069.9 1432.19   2
   2   1   6 33805.2 1607.44   4
   2  -1   6 34576.2 1667.86   2
   2  -1   6 34609.5 1721.52   4
  -2   1   6 34838.7 1711.09   3
   2   1   7 29926.7 1416.00   2
   2   1   7 32191.9 1167.37   1
   2  -1   7 29481.6 1717.73   4
   2   1   7 31345.0 1245.09   3
  -2   1   7 33631.1 1808.16   4
   2   1   7 31440.5 1688.38   4
  -2  -1   7 30653.0 1531.47   1
  -2   1   7 29391.9 1699.38   3
   2  -1   7 31341.5 1703.40   2
  -2  -1   7 30519.7 1655.00   4
   2  -1   7 28259.4 1447.17   1
  -2   1   7 30050.3 1343.59   2
  -2   1   8 16698.9 1084.27   2
  -2   1   8 16425.4 1353.08   3
   2   1   8 17620.9 904.106   1
   2  -1   8 16485.3 1164.06   1
  -2  -1   8 17505.3 1230.21   1
   2  -1   8 19018.7 1424.77   2
   2   1   8 18662.5 1208.10   2
   2   1   8 18161.3 1052.73   3
  -2   1   9 15129.0 1120.00   2
   2   1   9 15928.1 1088.01   3
  -2   1   9 16192.3 1453.33   3
   2  -1   9 14324.3 1149.28   1
   2   1   9 17375.6 943.199   1
  -2  -1   9 17894.7 1296.84   1
   2  -1   9 17084.2 1421.76   2
   2   1   9 15866.2 1192.54   2
   2   1  10 206.852 301.839   3
   2  -1  10-222.267 419.103   1
  -2   1  10 261.846 273.934   2
  -2   1  10 452.185 562.397   3
  -2  -1  10 1.76566 292.829   1
   2   1  10 80.4412 384.586   2
   2  -1  10-180.390 501.086   2
   2   1  10-127.808 238.595   1
   2   1  11 3742.56 512.548   1
   2   1  11 4626.80 756.387   2
  -2  -1  11 4005.06 719.192   1
   2   1  11 2629.68 590.712   3
   2  -1  11 4868.27 778.879   1
  -2   1  11 4146.75 843.409   3
   2  -1  11 4136.45 842.253   2
   2   1  12 960.791 481.155   2
  -2  -1  12 76.2628 424.492   1
   2  -1  12-254.934 386.586   1
   2   1  12-315.576 444.339   3
  -2   1  12 287.577 555.633   3
   2  -1  12-37.5362 544.848   2
   2  -1  13 1116.36 614.584   2
   2   1  13 1221.67 571.217   3
   2   1  13 685.072 437.957   2
  -2   1  13 562.015 557.566   3
   2  -1  14 313.638 508.800   2
  -2   1  14 262.737 513.760   3
   2  -1  15 2181.87 770.878   2
  -2   1  15-252.661 611.184   3
  -2   2 -14 13338.9 1884.35   4
   2   2 -14 12847.8 1737.41   4
  -2  -2 -13 9807.10 1513.67   4
  -2   2 -13 9163.71 1444.14   4
   2   2 -13 7691.45 1326.34   4
  -2   2 -12 43409.0 2863.10   4
   2   2 -12 42074.9 2753.40   4
  -2  -2 -12 42347.4 2696.29   4
   2   2 -11 6568.17 1115.48   4
  -2  -2 -11 5836.57 1021.13   4
  -2   2 -11 7410.37 1226.73   4
  -2  -2 -10 85186.5 3393.59   4
   2   2 -10 84166.7 3469.22   4
   2  -2 -10 85622.7 1433.19   1
  -2   2 -10 91611.1 3655.77   4
   2  -2  -9 52447.2 1200.64   1
  -2   2  -9 55268.3 2701.32   4
  -2  -2  -9 52323.6 2487.66   4
   2   2  -9 50383.5 2547.43   4
   2   2  -8 305462. 5398.17   1
  -2   2  -8 312395. 5377.35   1
   2   2  -8 318600. 5872.47   4
  -2  -2  -8 314488. 5640.30   4
   2  -2  -8 307634. 2987.12   1
  -2   2  -8 309907. 5951.27   4
  -2  -2  -7 27473.1 1586.23   4
   2  -2  -7 26528.1 896.382   1
   2   2  -7 26366.3 1605.09   4
  -2   2  -7 27113.9 1559.81   1
   2   2  -7 23934.3 1503.05   1
  -2   2  -7 26238.8 1669.59   4
   2  -2  -6 272583. 2898.93   1
  -2   2  -6 272163. 4913.01   4
  -2   2  -6 265971. 4596.51   1
  -2  -2  -6 264555. 4435.93   4
   2  -2  -6 268751. 2764.40   1
  -2  -2  -6 264227. 3532.91   2
   2   2  -6 269354. 4693.65   1
   2   2  -6 274289. 4675.79   4
   2   2  -5 144959. 3128.88   4
  -2   2  -5 144618. 3219.60   1
   2  -2  -5 148834. 2152.64   1
   2  -2  -5 145787. 2079.27   1
  -2   2  -5 146318. 3404.38   4
  -2  -2  -5 148061. 2522.43   2
   2   2  -5 149535. 3333.34   1
  -2  -2  -5 149232. 3036.38   4
  -2  -2  -4 813774. 5060.44   3
   2  -2  -4 851543. 7575.82   3
   2   2  -4 853684. 6749.28   4
   2  -2  -4 866869. 5164.71   1
  -2   2  -4 837064. 7416.38   1
  -2  -2  -4 787004. 5533.62   2
   2   2  -4 862454. 7623.33   1
  -2   2  -4 835359. 7579.62   4
  -2   2  -3 219166. 3588.80   1
  -2  -2  -3 217510. 2561.22   3
   2  -2  -3 215137. 2686.02   1
  -2   2  -3 213866. 3633.44   4
   2   2  -3 218967. 3035.48   4
   2   2  -3 222253. 3686.89   1
  -2  -2  -3 213934. 2810.85   2
  -2   2  -3 214442. 3254.25   3
   2  -2  -3 216909. 3624.34   3
   2  -2  -3 219366. 2505.97   2
   2   2  -2 213694. 2618.21   4
  -2   2  -2 211418. 3359.37   1
   2  -2  -2 209849. 3375.53   3
  -2  -2  -2 207690. 2773.31   2
   2  -2  -2 209425. 2753.33   1
  -2   2  -2 203371. 3289.31   2
   2   2  -2 215024. 3453.12   1
  -2  -2  -2 209343. 2575.73   3
   2  -2  -2 210996. 2515.88   2
  -2   2  -2 211257. 3143.10   3
  -2  -2  -1 95741.2 1788.60   3
   2   2  -1 93471.9 2155.96   1
   2  -2  -1 97449.0 2246.02   3
  -2   2  -1 92735.4 2073.38   2
   2  -2  -1 96205.7 1954.90   1
  -2  -2  -1 94355.1 1949.90   2
   2  -2  -1 97028.2 1835.15   2
  -2   2  -1 95113.7 2131.29   3
  -2   2  -1 95570.9 2169.52   1
   2   2  -1 91860.7 1506.93   4
  -2  -2   0 696657. 5512.49   2
  -2  -2   0 686827. 5127.68   3
  -2   2   0 694149. 5587.54   1
   2  -2   0 698011. 5808.45   3
   2  -2   0 700966. 5585.61   1
  -2  -2   0 699146. 5650.92   1
  -2   2   0 700076. 5861.58   3
   2   2   0 671369. 5513.14   1
   2  -2   0 709886. 5321.41   2
  -2   2   0 686059. 5265.95   2
   2   2   1 100788. 1990.46   2
  -2  -2   1 101126. 2136.68   3
   2   2   1 99865.3 1791.81   3
   2  -2   1 100478. 2188.78   3
  -2   2   1 97267.2 2275.27   3
   2  -2   1 100184. 2226.90   1
  -2  -2   1 101323. 2291.75   1
   2   2   1 101219. 2036.15   1
   2  -2   1 97686.6 2167.12   2
  -2   2   1 99623.5 1849.55   2
  -2   2   1 99277.1 2017.80   1
  -2  -2   1 101438. 2228.29   2
   2   2   2 190794. 2411.08   4
  -2   2   2 194273. 3341.63   3
   2  -2   2 204244. 3337.44   1
   2  -2   2 200870. 3294.32   2
   2   2   2 201757. 2682.43   2
   2  -2   2 197200. 3044.81   3
  -2   2   2 191582. 2417.46   2
   2   2   2 196759. 2693.78   1
  -2  -2   2 200722. 3381.41   1
   2   2   2 196112. 2379.27   3
   2   2   3 225434. 2774.08   1
   2  -2   3 231915. 3357.25   3
   2   2   3 227509. 2608.36   3
  -2   2   3 233675. 3837.40   3
   2   2   3 231047. 3050.97   4
  -2  -2   3 233087. 3819.09   1
   2  -2   3 228093. 3801.41   2
  -2   2   3 231005. 2518.57   2
  -2  -2   3 235256. 3149.30   4
   2  -2   3 236865. 3791.55   1
   2   2   3 235759. 2854.41   2
  -2   2   4 834403. 7703.42   3
   2  -2   4 820648. 6632.72   3
   2  -2   4 834506. 7445.02   1
  -2  -2   4 841570. 6722.14   4
  -2  -2   4 852035. 7658.55   1
   2  -2   4 842390. 7727.06   2
  -2   2   4 837824. 7560.16   4
  -2   2   4 839799. 4828.77   2
   2   2   4 816607. 6530.29   4
   2   2   4 837179. 5497.84   2
  -2   2   5 158059. 2210.61   2
   2  -2   5 152433. 3328.05   1
  -2   2   5 155579. 3481.62   4
   2  -2   5 151926. 3042.91   3
   2   2   5 153221. 2471.84   3
  -2   2   5 156370. 3518.79   3
   2   2   5 150843. 2472.21   2
   2   2   5 153415. 2173.68   1
   2  -2   5 154296. 3521.20   2
  -2  -2   5 154235. 3403.31   1
   2   2   5 152060. 3137.70   4
  -2  -2   5 153063. 3169.93   4
   2   2   6 269164. 3498.43   2
   2   2   6 261203. 2795.46   1
  -2   2   6 267616. 4886.29   4
   2   2   6 267975. 4550.86   4
  -2  -2   6 270613. 4706.70   1
   2  -2   6 264355. 4272.73   3
  -2  -2   6 268048. 4609.66   4
   2  -2   6 269674. 4614.91   1
  -2   2   6 274895. 4909.06   3
   2  -2   6 267971. 4927.46   2
   2   2   6 254934. 3506.57   3
  -2   2   6 264692. 3102.48   2
   2   2   7 31830.0 955.843   1
   2  -2   7 28263.5 1525.63   3
   2  -2   7 32754.2 1708.85   1
   2   2   7 30181.3 1314.92   3
  -2  -2   7 31651.7 1743.90   4
  -2  -2   7 29419.4 1633.40   1
   2  -2   7 32283.6 1842.33   2
  -2   2   7 29928.9 1761.63   3
   2   2   7 32034.3 1322.50   2
   2   2   7 29891.2 1700.31   4
  -2   2   7 30964.5 1160.13   2
  -2   2   8 302448. 3899.15   2
   2  -2   8 312624. 5286.74   3
   2   2   8 304181. 4469.90   3
  -2   2   8 308082. 5817.30   3
   2   2   8 305574. 4304.57   2
   2   2   8 309070. 2923.16   1
  -2  -2   8 319128. 5536.72   1
   2  -2   8 307007. 5391.63   1
   2  -2   8 319326. 5940.43   2
  -2   2   9 51160.2 1736.72   2
   2  -2   9 53405.0 2335.23   3
  -2   2   9 52418.2 2596.59   3
   2  -2   9 49927.3 2503.52   2
  -2  -2   9 53120.2 2390.42   1
   2   2   9 53537.5 1918.46   2
   2   2   9 51809.8 1171.69   1
   2  -2   9 51865.4 2361.06   1
   2   2   9 52424.6 2009.95   3
  -2  -2  10 89106.1 3173.66   1
   2   2  10 85154.9 1407.04   1
   2  -2  10 93209.3 3572.25   2
  -2   2  10 91965.9 3535.84   3
  -2   2  10 86921.9 2410.36   2
   2  -2  10 92531.4 3217.05   1
   2   2  10 91190.0 2658.54   2
   2   2  10 88003.1 2772.36   3
   2  -2  11 5068.71 874.910   1
   2  -2  11 6207.18 1080.94   2
  -2   2  11 5347.16 969.875   3
  -2  -2  11 5832.16 936.447   1
   2   2  11 4073.99 712.568   3
   2   2  11 5033.30 721.750   2
   2   2  12 46321.8 2273.36   3
  -2   2  12 47087.9 2832.92   3
  -2  -2  12 45540.6 2492.20   1
   2  -2  12 47576.9 2830.57   2
   2   2  12 46135.7 2101.88   2
   2  -2  12 44452.4 2450.54   1
   2  -2  13 8274.77 1242.77   2
   2  -2  13 8077.24 1125.03   1
  -2   2  13 7534.99 1289.18   3
  -2  -2  13 9112.33 1223.32   1
   2  -2  14 13002.6 1665.56   2
  -2   2  14 10015.2 1516.22   3
   2  -2  15 1332.57 698.739   2
  -2   2  15 1036.09 681.232   3
   2   3 -13-74.2557 662.787   4
  -2   3 -13 162.611 527.174   4
  -2   3 -12 2975.88 942.293   4
   2   3 -12 2622.84 816.800   4
  -2   3 -11 34344.4 2482.60   4
   2   3 -11 31051.2 2303.20   4
   2   3 -10 10310.8 1308.22   4
  -2   3 -10 11318.2 1399.86   4
  -2   3  -9 4945.53 904.629   4
   2   3  -9 7098.16 1021.67   4
   2   3  -8 17252.2 1463.43   4
  -2   3  -8 17737.1 1564.68   4
   2   3  -7 5302.63 836.658   4
  -2   3  -7 6637.66 962.626   4
   2  -3  -7 5139.49 318.933   1
   2   3  -6 37389.5 1832.66   4
  -2  -3  -6 37430.6 1208.11   2
   2  -3  -6 37255.9 978.921   1
  -2  -3  -6 34888.4 1429.50   3
   2  -3  -6 35885.8 995.144   1
   2   3  -6 35598.6 1885.67   1
  -2   3  -6 33967.4 1817.02   1
  -2   3  -6 34738.8 1924.85   4
   2  -3  -5 12518.8 640.923   1
  -2   3  -5 12984.7 1104.47   1
   2   3  -5 12153.2 994.827   4
  -2   3  -5 13516.5 1175.34   4
  -2  -3  -5 12190.8 824.043   3
   2  -3  -5 12167.4 1072.62   3
   2   3  -5 12459.3 1077.09   1
  -2  -3  -5 12581.4 713.395   2
   2  -3  -4 2272.77 333.305   1
   2  -3  -4 2463.28 504.940   3
   2   3  -4 2997.17 516.584   4
  -2   3  -4 2601.60 515.647   3
  -2   3  -4 2395.77 593.622   4
  -2  -3  -4 2932.13 367.243   2
  -2  -3  -4 3009.77 427.628   3
   2   3  -4 2991.22 564.685   1
   2  -3  -4 3386.32 301.375   2
  -2   3  -4 2758.75 539.512   1
   2  -3  -3 47458.4 1165.41   2
  -2   3  -3 45979.7 1805.35   3
  -2   3  -3 45189.3 1837.86   1
  -2  -3  -3 47342.2 1368.28   2
  -2  -3  -3 47399.6 1584.18   3
   2  -3  -3 44869.5 1888.31   3
   2  -3  -3 45699.7 1368.82   1
   2   3  -3 47581.0 1912.04   1
   2   3  -3 47131.5 1614.12   4
  -2   3  -2 52988.3 1897.93   1
  -2  -3  -2 54399.6 1714.98   3
   2  -3  -2 53763.1 1565.45   1
   2  -3  -2 53112.1 1979.82   3
  -2  -3  -2 53639.6 1533.72   2
  -2   3  -2 57491.4 1964.61   3
   2  -3  -2 53962.8 1395.06   2
  -2  -3  -2 53042.0 1594.38   1
   2   3  -2 51154.1 1903.38   1
   2   3  -2 53286.5 1596.10   4
   2  -3  -1 140073. 2674.16   1
  -2   3  -1 137051. 3031.50   3
  -2  -3  -1 139376. 2731.17   3
   2  -3  -1 134983. 3098.43   3
  -2  -3  -1 142173. 2621.54   2
  -2  -3  -1 143085. 2750.75   1
   2   3  -1 137328. 2957.75   1
   2  -3  -1 137665. 2405.24   2
  -2   3  -1 134838. 2902.10   1
   2  -3   0 381011. 4634.29   1
  -2  -3   0 373699. 4483.62   2
  -2   3   0 375384. 5084.74   3
   2  -3   0 376615. 5069.10   3
  -2   3   0 366468. 4562.64   1
   2  -3   0 384331. 4361.84   2
  -2  -3   0 376428. 4655.94   3
  -2  -3   0 371238. 4662.80   1
   2   3   0 364031. 4553.60   1
   2   3   0 369724. 4494.53   3
  -2  -3   1 139454. 2999.43   1
  -2  -3   1 143537. 2993.04   3
  -2   3   1 141508. 3176.88   3
   2  -3   1 141240. 2969.49   1
  -2   3   1 137797. 2690.42   1
  -2   3   1 136841. 2362.33   2
   2  -3   1 139247. 2829.68   2
   2   3   1 133998. 2670.73   1
   2   3   1 141441. 2660.08   3
   2  -3   1 139253. 3090.28   3
   2   3   2 53702.0 1618.05   3
  -2  -3   2 55745.4 1962.41   3
  -2   3   2 52402.3 1595.67   1
  -2  -3   2 54593.6 1958.53   1
  -2   3   2 55599.8 1383.40   2
   2  -3   2 54932.0 1908.71   2
   2   3   2 52013.6 1569.90   1
   2  -3   2 54976.1 1955.31   1
   2  -3   2 53736.1 1948.86   3
  -2   3   2 53195.4 2016.49   3
   2   3   3 48512.6 1368.15   2
   2  -3   3 48429.8 1918.52   1
  -2  -3   3 44929.7 1887.04   3
   2  -3   3 46794.7 1882.44   2
  -2   3   3 45574.8 1917.04   3
  -2   3   3 45430.3 1408.13   1
   2   3   3 45883.5 1386.41   1
  -2  -3   3 46920.6 1916.06   1
  -2   3   3 47693.4 1164.34   2
   2  -3   3 46540.0 1824.71   3
   2   3   3 46295.8 1571.91   4
   2   3   3 45953.9 1495.80   3
   2   3   4 2808.96 349.481   1
  -2   3   4 2430.67 539.972   3
   2  -3   4 2827.50 616.058   2
   2  -3   4 2915.00 558.450   3
   2   3   4 3193.29 381.518   2
   2   3   4 2300.70 397.559   3
  -2  -3   4 3252.46 614.507   1
  -2   3   4 2774.65 275.398   2
   2  -3   4 2778.06 584.777   1
   2   3   4 3358.90 510.567   4
   2   3   5 13461.9 703.497   2
  -2   3   5 11070.1 1073.52   4
   2   3   5 12892.3 881.493   3
   2   3   5 13042.9 998.150   4
   2  -3   5 11664.3 1026.69   3
  -2  -3   5 13770.8 1149.68   1
   2   3   5 12283.9 631.746   1
   2  -3   5 12710.1 1153.02   2
  -2   3   5 12032.0 1091.08   3
  -2   3   5 12419.4 518.953   2
   2  -3   5 11191.9 1043.95   1
   2   3   6 37090.6 1530.34   3
  -2   3   6 33763.1 1884.99   3
  -2  -3   6 35935.4 1807.74   4
   2  -3   6 36207.2 1808.53   3
  -2  -3   6 34358.7 1869.52   1
   2  -3   6 38114.8 2026.44   2
   2   3   6 36634.3 965.670   1
   2   3   6 38360.2 1199.50   2
  -2   3   6 36443.1 872.229   2
   2   3   6 35456.3 1783.31   4
   2   3   6 35637.1 974.641   1
   2  -3   6 35869.7 1892.09   1
   2  -3   7 6511.24 961.158   2
   2   3   7 5373.17 309.628   1
  -2   3   7 5996.11 385.363   2
   2  -3   7 6369.91 839.004   3
   2   3   7 5643.17 670.798   3
  -2  -3   7 5421.11 838.485   1
  -2   3   7 6126.48 923.519   3
   2  -3   7 5767.54 882.305   1
   2   3   7 5326.18 484.106   2
   2   3   7 5625.44 795.857   4
   2   3   7 5674.03 320.773   1
   2  -3   8 19554.8 1476.34   3
   2   3   8 17261.3 899.888   2
  -2   3   8 19048.8 1563.33   3
   2   3   8 18391.7 1216.97   3
  -2  -3   8 17524.6 1449.85   1
   2  -3   8 19384.7 1634.66   2
  -2   3   8 17535.8 697.659   2
   2  -3   8 18703.1 1498.52   1
  -2  -3   9 6099.75 968.376   1
   2  -3   9 7335.63 1023.44   1
   2  -3   9 8824.29 1152.82   2
  -2   3   9 6140.82 464.530   2
   2   3   9 6288.63 581.776   2
   2   3   9 6046.27 779.729   3
  -2   3   9 5450.62 957.904   3
   2  -3  10 10602.6 1359.63   2
   2   3  10 10624.7 1053.88   3
  -2   3  10 11518.9 1381.65   3
   2  -3  10 9789.48 1198.18   1
  -2  -3  10 8719.80 1172.63   1
   2   3  10 11672.8 834.808   2
  -2   3  10 10613.0 648.084   2
  -2  -3  11 31326.2 2163.04   1
   2   3  11 32469.1 1877.44   3
  -2   3  11 33461.6 2364.03   3
   2  -3  11 29560.2 2274.06   2
   2  -3  11 31234.2 2159.56   1
   2  -3  12 3260.97 934.879   2
   2  -3  12 3310.93 789.769   1
  -2   3  12 3743.86 959.023   3
   2   3  12 2914.26 688.124   3
  -2  -3  12 3278.56 860.581   1
   2  -3  13 85.7339 528.609   1
  -2   3  13 239.050 420.593   3
   2  -3  13 1599.76 846.868   2
  -2  -3  13-288.446 683.787   1
   2  -3  14 2210.10 764.464   1
  -2   3  14 3223.25 891.151   3
  -2  -3  14 1023.12 576.566   1
   2   4 -13 7569.29 1470.05   4
  -2   4 -13 6382.60 1320.97   4
  -2   4 -12 45955.9 3122.49   4
   2   4 -12 44884.2 3004.31   4
   2   4 -11 3244.25 929.062   4
  -2   4 -11 4388.51 1020.70   4
  -2   4 -10 125224. 4624.73   4
   2   4 -10 133086. 4587.39   4
  -2   4  -9 26017.9 2040.04   4
   2   4  -9 24735.1 1925.17   4
  -2   4  -8 88743.2 3567.93   4
   2   4  -8 85470.2 3276.22   4
   2   4  -7 1121.76 549.176   4
  -2  -4  -7 873.098 366.881   3
   2  -4  -7 537.990 115.023   1
  -2   4  -6 17679.7 1522.49   4
  -2  -4  -6 18106.3 1201.85   3
   2   4  -6 16936.0 1347.77   4
  -2  -4  -6 17644.8 754.787   2
   2  -4  -6 16507.0 704.522   1
   2  -4  -5 96260.5 1923.14   1
  -2  -4  -5 92648.9 2632.18   3
  -2   4  -5 99777.0 3331.66   4
  -2  -4  -5 95516.6 1855.18   2
   2   4  -5 97518.2 2926.46   4
   2  -4  -4 358005. 5998.35   3
  -2  -4  -4 344671. 5058.72   3
   2  -4  -4 351916. 4007.14   1
  -2  -4  -4 351959. 3768.31   2
  -2   4  -4 356533. 5747.98   3
   2   4  -4 345327. 5901.69   1
   2   4  -4 364659. 5334.24   4
   2  -4  -4 353116. 2870.92   2
  -2   4  -4 349962. 5823.69   1
  -2   4  -4 361262. 6075.38   4
   2  -4  -3 73954.6 2706.06   3
   2   4  -3 72407.7 2599.03   1
  -2  -4  -3 76217.9 2395.27   3
  -2  -4  -3 74584.1 1847.05   2
  -2  -4  -3 78055.3 2066.46   1
   2  -4  -3 75524.9 1595.21   2
   2  -4  -3 75083.5 1977.29   1
   2   4  -3 80057.1 2373.72   4
  -2   4  -3 77234.0 2648.82   3
  -2   4  -3 73128.6 2565.01   1
  -2   4  -2 276390. 4822.29   1
   2  -4  -2 280701. 5152.21   3
  -2  -4  -2 272002. 4546.00   3
   2  -4  -2 280207. 4033.32   1
  -2  -4  -2 284541. 3835.32   2
  -2  -4  -2 280275. 4115.18   1
  -2   4  -2 282939. 4970.11   3
   2  -4  -2 279650. 3497.85   2
   2   4  -2 274780. 4869.14   1
  -2  -4  -1 38828.0 1517.48   2
  -2   4  -1 38909.8 1871.26   3
   2  -4  -1 34218.5 1789.42   3
  -2  -4  -1 33139.8 1631.20   3
  -2  -4  -1 36498.8 1581.31   1
   2   4  -1 36696.5 1723.93   1
   2  -4  -1 35513.4 1365.01   2
  -2   4  -1 35645.4 1673.15   1
   2  -4  -1 38043.3 1580.78   1
   2   4   0 243270. 4239.55   3
   2  -4   0 238803. 4661.55   3
  -2   4   0 239380. 4129.12   1
  -2  -4   0 244770. 4195.64   1
  -2   4   0 243023. 4647.64   3
   2   4   0 242093. 4193.04   1
  -2  -4   0 239970. 4347.89   3
  -2  -4   0 239942. 3937.48   2
   2  -4   0 244146. 4127.14   1
   2  -4   0 244891. 3819.63   2
  -2  -4   1 35827.4 1761.53   3
  -2   4   1 34865.9 1818.40   3
   2  -4   1 34083.1 1780.86   3
  -2   4   1 33590.5 1511.21   1
   2  -4   1 34819.7 1656.14   1
   2   4   1 36206.6 1613.49   3
  -2  -4   1 35808.8 1698.24   1
   2  -4   1 34999.6 1557.92   2
   2   4   1 34838.9 1533.58   1
   2  -4   2 290638. 4899.45   1
   2   4   2 290706. 4412.60   3
   2  -4   2 282777. 5104.25   3
  -2   4   2 286019. 4163.83   1
  -2  -4   2 287548. 4924.33   1
   2  -4   2 277621. 4650.29   2
   2   4   2 280283. 4124.15   1
  -2  -4   2 287498. 5005.92   3
  -2   4   2 286273. 5187.80   3
  -2  -4   3 69525.0 2592.71   3
  -2   4   3 74907.9 2735.96   3
   2   4   3 69939.5 2179.94   3
   2  -4   3 70922.4 2602.03   3
   2  -4   3 69730.1 2469.37   2
  -2   4   3 70074.9 1969.42   1
  -2  -4   3 69194.9 2519.72   1
   2  -4   3 69824.9 2529.66   1
   2   4   3 63755.6 1864.76   1
  -2  -4   4 362418. 6153.34   3
  -2   4   4 364017. 6153.08   3
   2   4   4 358732. 4960.73   3
   2  -4   4 363156. 5959.80   2
   2  -4   4 363308. 5951.86   1
  -2   4   4 360626. 4185.56   1
  -2  -4   4 361809. 5947.39   1
   2   4   4 363373. 5219.47   4
   2   4   4 354407. 4089.19   1
   2  -4   4 362079. 5906.60   3
   2  -4   5 88231.1 3011.59   3
   2   4   5 90990.8 2584.71   3
  -2   4   5 87176.1 3129.52   3
   2  -4   5 85339.1 3003.39   1
   2   4   5 87982.3 2727.13   4
   2  -4   5 87753.7 3087.32   2
  -2  -4   5 88816.0 3088.17   1
   2   4   5 86107.6 1839.13   1
   2   4   6 22875.7 825.980   1
   2   4   6 19752.5 1295.75   3
  -2   4   6 25571.4 1787.40   3
   2  -4   6 21289.8 1620.53   1
   2   4   6 22601.3 1500.19   4
   2  -4   6 20982.7 1643.48   2
  -2  -4   6 18650.7 1489.92   1
   2   4   7 863.096 420.315   3
  -2  -4   7 814.855 541.526   1
   2   4   7 1108.38 221.651   2
  -2   4   7 1407.65 580.655   3
   2  -4   7 890.376 527.044   2
   2   4   7 916.894 125.597   1
   2  -4   7 1374.08 578.502   1
  -2   4   8 84984.2 3451.11   3
   2   4   8 88493.2 2884.69   3
   2  -4   8 88989.6 3445.64   1
  -2  -4   8 92669.3 3513.15   1
   2  -4   8 90158.7 3613.85   2
   2   4   8 90941.6 1583.08   2
   2   4   9 25716.7 841.373   2
   2  -4   9 26983.8 2092.10   2
  -2  -4   9 26275.2 1976.92   1
  -2   4   9 26258.2 2043.29   3
   2  -4   9 28230.7 2049.73   1
   2   4   9 26280.8 1662.24   3
  -2  -4  10 126374. 4416.56   1
  -2   4  10 117845. 4403.41   3
   2   4  10 117983. 3628.44   3
   2  -4  10 122184. 4552.62   2
   2  -4  10 126403. 4399.83   1
   2  -4  11 5229.80 1133.18   2
   2  -4  11 6667.93 1124.79   1
   2   4  11 4486.94 826.715   3
  -2   4  11 4627.17 976.149   3
  -2  -4  11 4875.61 1037.02   1
  -2   4  12 52520.7 3218.99   3
  -2  -4  12 49273.4 2984.83   1
   2  -4  12 50410.9 3228.79   2
   2  -4  12 47857.0 2928.68   1
   2  -4  13 8868.32 1539.41   2
   2  -4  13 6753.77 1245.17   1
  -2   4  13 5799.69 1240.21   3
  -2  -4  13 5613.15 1165.61   1
  -2   4  14 40721.8 3101.41   3
  -2  -4  14 39281.6 2901.77   1
   2  -4  14 39859.3 2893.81   1
  -2   5 -12 85.0967 542.808   4
   2   5 -12 1327.77 765.674   4
  -2   5 -11 832.098 597.503   4
   2   5 -11 3142.00 925.341   4
   2   5 -10 1166.97 681.696   4
  -2   5 -10 1438.87 635.033   4
  -2   5  -9 452.132 616.529   4
   2   5  -9 1468.94 665.448   4
   2   5  -8 5718.92 971.854   4
  -2   5  -8 5675.63 1069.86   4
   2   5  -7 2938.35 758.081   4
  -2  -5  -7 2497.19 589.108   3
   2  -5  -7 3001.75 273.053   1
  -2   5  -7 3463.80 781.909   4
   2  -5  -6 718.546 247.061   1
   2   5  -6 2344.71 604.645   4
  -2  -5  -6 1641.60 499.401   3
  -2  -5  -6 1951.75 241.197   2
  -2   5  -6 1437.52 594.616   4
  -2  -5  -5 47862.6 2199.99   3
   2  -5  -5 53099.6 1625.50   1
   2   5  -5 51309.8 2335.08   4
  -2  -5  -5 51816.2 1392.60   2
  -2   5  -5 51210.6 2619.71   4
  -2  -5  -4 10453.9 718.220   2
  -2   5  -4 10239.1 1161.99   3
  -2  -5  -4 8830.83 988.870   3
   2   5  -4 9784.31 1025.35   4
   2  -5  -4 9795.58 785.370   1
   2  -5  -4 9786.07 529.431   2
  -2  -5  -3-86.1941 309.618   1
   2   5  -3 124.585 364.189   4
   2  -5  -3 1.54692 188.295   2
  -2  -5  -3 250.733 184.131   2
  -2   5  -3 489.335 568.046   3
  -2  -5  -3-537.963 347.580   3
   2  -5  -3-2.42249 263.257   1
  -2  -5  -2 8947.66 1007.06   3
  -2  -5  -2 8516.51 854.564   1
  -2   5  -2 7348.64 966.942   3
  -2  -5  -2 9445.95 798.708   2
   2  -5  -2 6621.99 630.983   2
   2  -5  -2 8154.04 791.787   1
  -2  -5  -1 6461.26 712.660   2
   2  -5  -1 6384.17 752.628   1
  -2   5  -1 8265.84 1041.92   3
   2   5  -1 6760.19 840.310   1
  -2  -5  -1 6817.03 895.631   3
   2   5  -1 6565.18 921.124   3
  -2  -5  -1 8316.03 861.585   1
   2  -5  -1 6464.54 692.070   2
  -2   5  -1 7055.59 866.038   1
  -2  -5   0 20676.6 1486.05   3
  -2  -5   0 17987.8 1208.37   2
   2   5   0 19201.7 1387.40   3
  -2   5   0 17146.4 1439.83   3
  -2   5   0 18068.2 1289.02   1
  -2  -5   0 20308.9 1364.10   1
   2  -5   0 18929.7 1206.67   2
   2   5   0 18192.6 1306.16   1
   2  -5   0 18678.6 1296.19   1
   2  -5   1 7119.46 801.855   2
  -2   5   1 7742.20 824.091   1
  -2  -5   1 6144.83 803.878   1
   2   5   1 6286.31 774.475   1
  -2  -5   1 7028.24 913.858   3
  -2   5   1 7315.10 1000.04   3
   2  -5   1 6964.47 845.832   1
   2   5   1 6934.20 883.372   3
   2   5   2 7435.31 894.255   3
  -2   5   2 8435.40 840.977   1
  -2  -5   2 7939.58 949.456   1
  -2   5   2 8797.76 1094.96   3
   2   5   2 7817.20 798.856   1
   2  -5   2 6921.35 860.659   2
   2  -5   2 7795.65 963.903   1
   2  -5   3 144.568 374.694   2
   2   5   3 53.3528 414.424   3
  -2  -5   3-212.712 454.940   1
   2   5   3 263.157 256.388   1
  -2   5   3 1022.52 644.242   3
   2  -5   3 144.740 404.669   1
  -2   5   3 326.792 249.095   1
   2  -5   4 11053.3 1169.23   2
   2   5   4 9759.22 796.615   1
   2  -5   4 9420.30 1099.33   1
  -2   5   4 10688.9 849.301   1
  -2  -5   4 11248.6 1199.43   1
  -2   5   4 8716.34 1125.66   3
   2   5   4 9755.66 1003.45   3
  -2   5   5 53220.2 2657.92   3
   2  -5   5 48285.9 2478.94   2
  -2  -5   5 53005.7 2606.09   1
   2   5   5 49603.8 1617.98   1
   2  -5   5 51861.4 2577.71   1
   2   5   5 52632.0 2225.37   3
   2  -5   6 1112.32 553.932   2
   2   5   6 1042.62 458.696   3
   2  -5   6 734.800 455.107   1
   2   5   6 1896.14 299.123   1
  -2   5   6 2094.43 699.102   3
  -2  -5   6 1483.29 578.621   1
   2  -5   7 2875.60 790.848   1
   2   5   7 3472.76 651.166   3
  -2   5   7 3511.34 880.215   3
   2   5   7 3143.51 267.297   1
  -2  -5   7 4127.66 908.802   1
   2  -5   7 2441.09 823.987   2
   2  -5   8 5808.48 1032.08   1
  -2  -5   8 5986.53 1077.24   1
   2   5   8 4701.97 811.216   3
  -2   5   8 5472.51 1007.91   3
   2  -5   8 4728.12 935.160   2
   2  -5   9 1648.57 685.745   2
   2  -5   9 888.432 560.128   1
   2   5   9 623.859 448.515   3
  -2   5   9 542.126 610.417   3
  -2  -5   9 1568.12 630.335   1
  -2  -5  10 427.649 541.513   1
   2  -5  10 1562.94 661.959   2
   2  -5  10 1608.01 713.075   1
  -2   5  10 1313.24 691.745   3
   2   5  10 1539.96 589.335   3
  -2  -5  11 1162.99 664.190   1
   2  -5  11 2000.97 789.197   2
   2  -5  11 1356.73 613.697   1
  -2   5  11 1309.29 756.034   3
   2   5  11 1765.87 621.405   3
   2  -5  12 366.328 668.088   2
   2  -5  12 355.105 631.226   1
  -2  -5  12-548.045 827.881   1
  -2   5  12 1247.80 757.490   3
   2  -5  13 528.048 515.776   1
  -2   5  13-504.087 725.076   3
  -2  -5  13 374.548 703.512   1
   2   6 -12 28568.2 2597.43   4
  -2   6 -11 1399.39 716.009   4
   2   6 -11 1766.11 866.815   4
  -2   6 -10 31666.7 2667.92   4
   2   6 -10 30175.4 2430.91   4
   2   6  -9 5758.32 1088.28   4
  -2   6  -9 6779.35 1223.82   4
   2   6  -8 35726.6 2374.71   4
  -2   6  -8 39887.5 2750.51   4
   2   6  -7 2619.12 768.016   4
  -2   6  -7 2912.94 870.241   4
  -2   6  -6 90394.5 3822.74   4
   2   6  -6 84651.8 3356.87   4
   2  -6  -6 87250.4 2120.71   1
  -2   6  -5 18938.5 1698.61   3
   2  -6  -5 19189.4 1117.41   1
  -2   6  -5 16765.8 1678.56   4
  -2  -6  -5 19650.9 891.761   2
   2   6  -5 19245.6 1579.32   4
   2  -6  -4 100005. 2706.55   1
   2   6  -4 94930.3 3288.14   4
  -2  -6  -4 101411. 2338.45   2
   2  -6  -4 101581. 1835.29   2
  -2  -6  -4 102655. 2794.11   1
   2  -6  -3 7838.83 844.614   1
  -2  -6  -3 8274.27 878.869   1
  -2   6  -3 8175.72 1143.13   3
   2   6  -3 9400.51 1077.18   4
   2  -6  -3 7534.70 661.412   2
  -2  -6  -3 8591.43 775.601   2
   2  -6  -2 186343. 4064.25   1
  -2   6  -2 188884. 4985.64   3
   2  -6  -2 180830. 3412.00   2
  -2  -6  -2 179817. 3643.89   2
  -2  -6  -2 186110. 4109.81   1
  -2   6  -1 30503.3 2050.60   3
   2   6  -1 30445.2 1957.37   3
  -2  -6  -1 30254.0 1603.71   2
  -2  -6  -1 29624.0 1748.17   1
   2  -6  -1 31092.9 1563.97   2
   2  -6  -1 30383.3 1740.57   1
   2   6   0 346943. 6359.31   3
  -2   6   0 347798. 6765.33   3
  -2  -6   0 340355. 5595.92   2
  -2  -6   0 347839. 6052.55   1
   2  -6   0 355629. 5512.98   2
   2  -6   0 348874. 6035.02   1
  -2   6   1 29214.9 2016.08   3
  -2   6   1 28633.4 1707.53   1
   2   6   1 31896.7 1816.56   1
  -2  -6   1 31166.1 1900.32   1
   2  -6   1 25531.0 1615.79   2
   2  -6   1 31984.0 1942.24   1
   2   6   1 29589.9 1873.31   3
   2  -6   2 187579. 4717.63   1
  -2   6   2 180099. 4942.91   3
   2   6   2 175781. 4003.72   1
  -2  -6   2 178013. 4588.64   1
   2  -6   2 172710. 4338.47   2
   2   6   2 186512. 4522.30   3
  -2   6   2 171863. 3979.08   1
   2   6   3 9620.03 1103.25   3
  -2   6   3 8238.05 860.054   1
  -2   6   3 9452.43 1224.04   3
   2  -6   3 8690.06 1142.88   1
   2  -6   3 9324.38 1125.13   2
  -2  -6   3 9837.90 1184.15   1
   2   6   3 9007.04 917.563   1
   2   6   4 99212.8 3323.09   3
  -2   6   4 95204.5 3745.22   3
   2   6   4 94660.7 2662.96   1
   2  -6   4 90822.1 3541.40   1
  -2  -6   4 99984.0 3677.33   1
   2  -6   4 98329.4 3593.95   2
  -2   6   4 97365.0 2757.95   1
   2   6   5 18616.2 1111.43   1
  -2   6   5 16568.9 1640.13   3
   2  -6   5 20825.9 1784.98   1
  -2   6   5 19200.5 1159.70   1
   2  -6   5 19348.2 1721.12   2
  -2  -6   5 21768.9 1825.79   1
   2   6   5 18512.0 1531.66   3
  -2   6   6 90406.6 3796.59   3
   2  -6   6 83777.5 3619.37   1
   2  -6   6 80214.9 3557.26   2
  -2  -6   6 84207.6 3622.63   1
   2   6   6 83077.0 3164.16   3
   2   6   7 2106.54 664.699   3
   2  -6   7 3000.55 868.396   2
   2  -6   7 5115.78 1030.26   1
  -2   6   7 2772.79 863.618   3
  -2  -6   7 2683.12 827.981   1
   2   6   8 37674.7 2220.02   3
  -2   6   8 36544.7 2622.86   3
  -2  -6   8 36158.9 2554.69   1
   2  -6   8 37569.7 2666.95   2
   2  -6   8 37076.3 2597.41   1
  -2  -6   9 6841.35 1245.61   1
   2  -6   9 7868.79 1296.42   1
   2  -6   9 8455.20 1417.45   2
  -2   6   9 6809.03 1230.55   3
   2   6   9 8411.69 1144.69   3
   2   6  10 28078.0 2050.13   3
  -2   6  10 31836.5 2597.31   3
  -2  -6  10 31838.0 2590.87   1
   2  -6  10 30067.2 2592.44   2
   2  -6  10 32549.0 2602.40   1
   2  -6  11 2617.00 926.400   1
  -2  -6  11 2377.30 978.766   1
  -2   6  11 654.428 690.080   3
   2  -6  11 1751.05 947.726   2
  -2   6  12 35717.7 2909.93   3
   2   7 -11 458.484 555.511   4
   2   7 -10 2152.72 837.982   4
  -2   7  -9 1137.20 823.108   4
   2   7  -9 179.541 563.387   4
   2   7  -8-232.641 743.847   4
  -2   7  -8-121.415 692.556   4
   2   7  -7-187.489 552.139   4
  -2   7  -7 892.972 610.910   4
   2   7  -6 2765.51 789.748   4
  -2   7  -6 2777.98 895.285   4
  -2   7  -5 534.277 641.936   4
   2   7  -5 393.181 537.959   4
   2  -7  -5-33.0090 259.059   1
   2   7  -4 368.745 468.776   4
   2  -7  -4 531.593 309.578   1
  -2   7  -4 686.788 584.383   3
  -2  -7  -4 687.808 369.391   1
   2  -7  -4 768.828 229.975   2
   2   7  -3 1995.21 610.959   4
   2  -7  -3 1984.49 436.023   2
   2  -7  -3 3551.79 658.164   1
  -2  -7  -3 3065.87 489.167   2
  -2   7  -3 3224.11 873.121   3
  -2  -7  -3 2978.00 626.996   1
  -2   7  -2-251.254 491.798   3
   2  -7  -2 116.192 299.210   2
   2  -7  -2-148.395 378.525   1
  -2  -7  -2-188.802 348.040   2
  -2  -7  -2 131.466 378.781   1
   2   7  -1 10.5678 580.538   3
   2  -7  -1 170.072 368.552   1
   2  -7  -1 319.212 371.006   2
  -2  -7  -1 629.081 366.936   2
  -2  -7  -1 1113.94 465.580   1
  -2   7  -1 89.5548 502.716   3
   2  -7   0 902.048 449.784   2
   2  -7   0 1321.31 507.123   1
  -2   7   0 1155.79 640.326   3
  -2  -7   0 1336.93 573.112   1
   2   7   0 1186.79 623.375   3
   2  -7   1 179.575 456.862   2
   2   7   1 689.871 533.430   3
  -2   7   1 1146.07 710.962   3
  -2  -7   1 704.402 456.503   1
   2  -7   1 931.694 531.514   1
   2   7   2-242.382 525.947   3
   2  -7   2-135.422 379.765   2
   2  -7   2-54.3777 435.468   1
  -2   7   2 1254.96 722.423   3
  -2  -7   2 205.554 401.019   1
   2  -7   3 2357.01 677.766   2
   2  -7   3 1788.60 641.384   1
   2   7   3 2889.37 748.881   3
  -2   7   3 2875.87 822.662   3
  -2  -7   3 3324.58 808.185   1
   2  -7   4 123.486 497.001   2
   2  -7   4 1203.01 635.104   1
   2   7   4 723.709 592.435   3
  -2   7   4 815.594 618.154   3
  -2  -7   4 352.721 550.697   1
  -2  -7   5-193.670 502.330   1
   2  -7   5-301.722 659.897   2
   2   7   5-263.213 460.462   3
  -2   7   5-246.010 592.124   3
   2  -7   5 912.215 629.154   1
   2  -7   6 1952.94 788.165   2
   2  -7   6 2003.00 758.557   1
  -2   7   6 1677.59 788.596   3
  -2  -7   6 1180.34 681.397   1
   2   7   6 1617.33 562.124   3
   2  -7   7 1195.71 783.073   2
   2   7   7 234.815 429.176   3
   2  -7   7 399.963 533.570   1
  -2   7   7 753.926 570.866   3
  -2  -7   7 829.387 581.677   1
   2   7   8-87.4902 589.477   3
   2  -7   8 105.202 626.111   2
  -2  -7   8 113.502 616.378   1
   2  -7   8 158.442 581.657   1
  -2  -7   9 1386.63 800.543   1
   2  -7   9 289.580 596.900   1
   2   7   9-22.7499 647.185   3
  -2   7   9 7.77407 611.309   3
   2  -7   9 1509.79 749.850   2
   2  -7  10-465.099 809.536   1
  -2   7  10-870.597 643.769   3
   2   8  -9 3923.43 1055.63   4
  -2   8  -8 23093.0 2398.16   4
   2   8  -8 18851.0 2042.39   4
   2   8  -7 2407.75 829.782   4
  -2   8  -7 1241.29 903.196   4
   2   8  -6 59294.2 3260.66   4
  -2   8  -6 61185.5 3654.11   4
  -2   8  -5 8599.42 1503.35   4
   2   8  -5 8459.93 1291.96   4
   2   8  -4 44758.9 2693.27   4
  -2   8  -4 42046.7 2886.91   3
  -2  -8  -4 42426.4 2196.15   1
   2  -8  -4 44724.7 2201.50   1
  -2   8  -3 8425.74 1405.13   3
  -2  -8  -3 8720.24 1102.60   1
   2  -8  -3 9754.83 1112.28   1
   2   8  -3 8612.35 1232.90   4
  -2  -8  -2 84470.3 3342.39   1
   2  -8  -2 83523.4 2716.28   2
   2  -8  -2 84150.6 3291.97   1
  -2   8  -2 85800.8 4049.98   3
  -2  -8  -1 18653.0 1667.38   1
   2  -8  -1 16072.8 1369.97   2
   2  -8  -1 20097.9 1713.68   1
  -2   8   0 154792. 5337.93   3
  -2  -8   0 154545. 4766.87   1
   2  -8   0 150272. 4227.51   2
   2  -8   0 157784. 4786.20   1
   2   8   0 166675. 5253.73   3
   2   8   1 20503.7 1887.40   3
  -2   8   1 19399.8 1972.73   3
  -2  -8   1 19961.4 1822.47   1
   2  -8   1 18580.0 1721.55   1
   2  -8   1 19231.9 1666.85   2
  -2   8   2 84543.2 3975.60   3
   2   8   2 77508.4 3586.31   3
  -2  -8   2 85777.1 3760.86   1
   2  -8   2 86130.2 3572.49   2
   2  -8   2 83814.9 3716.48   1
   2   8   3 7175.89 1168.91   3
   2  -8   3 8333.45 1234.95   2
  -2   8   3 8157.41 1372.83   3
   2  -8   3 7653.33 1267.13   1
  -2  -8   3 7380.59 1235.47   1
   2   8   4 45818.6 2757.12   3
  -2  -8   4 48986.2 3002.48   1
   2  -8   4 44956.3 2810.66   2
   2  -8   4 45808.8 2944.30   1
  -2   8   4 46106.8 3040.21   3
   2  -8   5 10095.4 1484.65   1
   2  -8   5 10284.0 1503.76   2
  -2  -8   5 12016.0 1565.25   1
  -2   8   5 10871.3 1561.85   3
   2   8   5 10557.8 1364.94   3
   2   8   6 60912.3 3231.96   3
  -2  -8   6 59619.4 3528.21   1
   2  -8   6 58938.9 3488.80   2
  -2   8   6 67014.2 3780.99   3
   2  -8   6 60519.9 3599.77   1
   2  -8   7 1485.51 699.200   2
   2  -8   7 3409.89 903.829   1
   2   8   7 2664.33 750.162   3
  -2   8   7 771.053 846.862   3
  -2  -8   7 2037.90 835.389   1
  -2   8   8 22751.9 2351.04   3
   2   8   8 19984.3 1915.37   3
   2  -8   8 20261.1 2260.32   2
   2   9  -7-536.754 632.885   4
   2   9  -6 1946.71 719.979   4
   2   9  -5 13681.1 1700.31   4
  -2   9  -5 14393.7 1945.01   4
   2   9  -4 759.218 638.445   4
  -2   9  -4 2469.70 938.478   3
   2   9  -3 2816.00 712.487   4
   2  -9  -3 3071.13 694.977   1
  -2   9  -3 1717.87 820.464   3
  -2  -9  -3 2010.93 656.342   1
  -2   9  -2 1903.22 821.799   3
   2  -9  -2 1449.78 618.957   1
  -2  -9  -2 2904.58 771.959   1
   2  -9  -1 770.678 573.777   1
  -2   9  -1 173.490 720.149   3
  -2  -9  -1 697.927 597.435   1
   2   9   0-135.325 674.932   3
   2  -9   0-1620.48 563.128   2
  -2   9   0 857.119 602.211   3
   2  -9   0-306.870 633.057   1
  -2  -9   0-365.983 616.853   1
   2  -9   1-600.264 797.516   1
   2   9   1-687.763 799.342   3
  -2   9   1 629.493 608.316   3
   2  -9   1 218.350 504.098   2
  -2  -9   1 1228.99 910.307   1
   2  -9   2 2616.65 731.220   2
   2  -9   2 1293.25 660.014   1
   2   9   2 977.597 699.491   3
  -2   9   2 2735.34 1010.90   3
  -2  -9   2 1247.73 692.045   1
  -2   9   3 1673.33 856.686   3
   2  -9   3 422.548 585.533   2
   2  -9   3 1512.24 714.709   1
   2   9   3 1196.25 707.186   3
  -2  -9   3 2051.54 770.971   1
   2   9   4 1680.90 775.416   3
   2  -9   4 256.495 769.821   1
  -2  -9   4 1880.68 719.732   1
  -2   9   4 3096.75 925.133   3
   2  -9   4 791.097 575.665   2
  -2   9   5 12950.6 1816.55   3
   2   9   5 13612.4 1703.82   3
   2  -9   5 15831.3 1843.17   2
  -2  -9   5 14205.7 1899.80   1
   2  -9   5 13706.3 1855.91   1
   2  -9   6 1086.27 614.494   2
   2   9   6 2617.65 956.668   3
   2   9   7-468.539 514.138   3
   2  10  -5 3993.10 1013.68   4
   2  10  -4 35146.7 2779.97   4
   2  10  -3 2084.67 829.784   4
   2 -10  -1 220.644 579.854   1
  -2 -10  -1 457.493 568.608   1
   2 -10   0 10957.5 1549.61   1
  -2 -10   0 10614.5 1550.26   1
   2 -10   1 3412.78 955.854   1
  -2 -10   1 2342.26 765.207   1
   2  10   2 20176.9 2178.48   3
  -2 -10   2 19419.6 2118.66   1
   2 -10   2 22957.1 2143.08   2
   2 -10   2 25132.2 2386.83   1
   2 -10   3 1411.87 680.861   2
   2  10   3 462.190 702.736   3
   2 -10   4 32627.6 2780.43   2
  -3   0 -14-1080.52 772.398   4
  -3   0 -13 378.630 485.128   4
   3   0 -13-274.573 573.754   4
  -3   0 -12-229.956 691.244   4
   3   0 -12-777.940 789.074   4
   3   0 -11-263.122 569.602   4
   3   0 -11 701.074 282.573   1
  -3   0 -11 367.900 335.345   1
  -3   0 -11-223.338 493.881   4
  -3   0 -10-142.679 511.924   4
  -3   0 -10-777.145 359.192   1
   3   0 -10-14.1446 324.822   1
   3   0 -10 193.289 520.506   4
   3   0  -9 258.299 334.844   4
  -3   0  -9-119.463 272.786   1
  -3   0  -9-122.229 434.475   4
   3   0  -9 29.5532 253.898   1
   3   0  -8-58.1764 276.827   1
  -3   0  -8-165.555 382.589   4
   3   0  -8-116.129 404.778   4
  -3   0  -8-131.863 253.242   1
   3   0  -7-161.592 226.409   1
  -3   0  -7 247.970 255.822   1
   3   0  -7-198.524 331.267   4
  -3   0  -7 197.787 375.321   4
   3   0  -6 46.0644 348.315   4
  -3   0  -6 419.785 352.665   4
  -3   0  -6-28.9169 276.992   2
  -3   0  -6 191.970 237.616   1
   3   0  -6 139.598 234.365   1
   3   0  -5-294.765 314.554   4
  -3   0  -5 39.7822 335.805   2
  -3   0  -5 185.121 293.411   4
   3   0  -5 229.607 264.838   1
  -3   0  -5 146.932 207.586   1
  -3   0  -4 63.8707 254.021   4
  -3   0  -4 126.120 242.212   2
   3   0  -4 126.686 219.340   1
  -3   0  -3 135.431 202.565   2
   3   0  -3-22.5719 249.121   2
   3   0  -3 32.1776 206.568   1
  -3   0  -3-35.8838 194.284   4
  -3   0  -2 179.605 174.524   4
  -3   0  -2 110.728 266.523   2
   3   0  -2-47.6142 236.723   2
  -3   0  -2 599.030 112.734   3
  -3   0  -1 99.5364 162.452   4
   3   0  -1 52.7535 272.507   2
  -3   0  -1 274.832 148.252   3
  -3   0  -1 410.166 249.604   2
  -3   0   0 333.501 268.937   2
   3   0   0-39.7047 259.718   2
  -3   0   0 95.0932 169.495   3
   3   0   1 23.6158 315.470   2
  -3   0   1 22.7911 231.606   2
   3   0   2 137.548 282.929   2
   3   0   2-101.188 274.095   1
  -3   0   2 278.692 234.147   2
  -3   0   2 299.376 152.985   4
  -3   0   3 168.117 201.010   4
   3   0   3 153.865 208.930   4
   3   0   3-110.393 265.115   2
  -3   0   3-7.20012 234.566   2
   3   0   3 185.999 206.640   1
  -3   0   4 122.684 224.809   4
   3   0   4 307.838 253.320   4
   3   0   4 227.697 256.555   1
   3   0   4-114.401 352.527   2
  -3   0   4 78.1434 223.218   2
   3   0   4 132.332 85.8759   3
  -3   0   5 178.962 240.161   4
   3   0   5 339.891 319.031   4
   3   0   5-58.3091 341.748   2
   3   0   5 37.0441 244.370   1
   3   0   5 4.80289 120.422   3
  -3   0   5 32.4609 247.773   2
  -3   0   6-182.036 312.666   4
   3   0   6 539.615 413.535   4
   3   0   6 163.939 350.971   2
   3   0   6 159.687 310.282   1
  -3   0   6-13.7793 267.670   2
   3   0   6 89.5829 181.561   3
   3   0   7 38.7541 324.229   2
  -3   0   7-140.362 340.578   2
  -3   0   7 21.7315 309.272   4
   3   0   7 203.860 260.427   1
   3   0   7 251.644 393.859   4
  -3   0   8 298.422 405.792   2
   3   0   8-33.9579 392.298   2
   3   0   8-84.8379 316.675   1
   3   0   9 157.763 402.288   2
  -3   0   9 167.672 349.035   2
   3   0   9-69.9229 377.071   1
   3   0  10 58.4631 368.919   2
   3   0  10-586.140 334.619   1
   3   0  11-156.262 372.166   2
   3   0  11 64.6909 386.518   1
   3   0  11 226.809 340.011   3
   3   0  12-19.1348 353.928   1
   3   0  12 389.573 317.602   3
   3   0  13-414.352 427.043   2
  -3   0  13 155.146 436.810   3
   3   0  14-1722.16 708.885   2
  -3   0  14 357.599 600.293   3
  -3   1 -14 18980.5 2089.47   4
   3   1 -14 19698.1 2059.37   4
  -3  -1 -14 21411.2 2191.29   4
   3   1 -13 4849.62 1070.26   4
  -3  -1 -13 4405.25 1066.32   4
  -3   1 -13 4611.24 1059.20   4
  -3   1 -12 68784.3 3499.83   4
  -3  -1 -12 75494.3 3545.05   4
   3   1 -12 68529.1 3494.25   4
  -3   1 -11 35921.7 2414.99   4
  -3  -1 -11 32206.0 2221.45   4
   3   1 -11 33711.1 2328.98   4
  -3   1 -10 56534.6 2829.40   4
  -3  -1 -10 54924.4 2687.92   4
   3  -1 -10 51224.7 1871.08   1
   3   1 -10 53410.1 2729.06   4
  -3  -1  -9 11959.8 1212.57   4
   3   1  -9 11747.7 1257.35   4
  -3   1  -9 10352.2 1018.97   1
   3   1  -9 10144.6 1031.71   1
  -3   1  -9 10413.2 1206.41   4
   3  -1  -9 10882.1 869.882   1
  -3   1  -8 235922. 4538.54   1
  -3  -1  -8 234693. 4801.10   4
   3  -1  -8 236612. 3814.11   1
   3   1  -8 238876. 4620.94   1
   3   1  -8 237354. 4997.14   4
  -3   1  -8 236853. 5087.53   4
  -3   1  -7 158417. 3621.92   1
  -3  -1  -7 163742. 3728.33   4
   3   1  -7 158944. 3794.46   4
  -3  -1  -7 151651. 3446.41   2
   3  -1  -7 158718. 3065.64   1
   3   1  -7 163750. 3713.70   1
  -3   1  -7 163466. 3946.09   4
  -3  -1  -6 376362. 5181.85   4
  -3   1  -6 371325. 5303.98   1
  -3   1  -6 375164. 5524.44   4
   3   1  -6 379969. 5360.58   4
   3  -1  -6 378485. 4659.45   1
  -3  -1  -6 369921. 5113.61   2
   3   1  -6 361118. 5347.01   1
  -3   1  -5 53809.9 1958.07   4
   3   1  -5 57154.5 1898.67   4
  -3   1  -5 53859.5 1955.19   1
   3  -1  -5 52622.8 1692.16   1
  -3   1  -5 55899.6 2113.45   2
   3   1  -5 52498.1 1963.82   1
  -3  -1  -5 55436.8 1924.98   2
  -3  -1  -5 54533.0 1802.47   4
  -3   1  -4 290419. 4169.29   4
  -3   1  -4 288174. 4306.55   1
  -3  -1  -4 289865. 3672.69   4
   3   1  -4 296642. 4452.95   1
  -3   1  -4 296892. 4630.67   2
   3   1  -4 298922. 3851.03   4
   3  -1  -3 202346. 3173.22   2
  -3   1  -3 204070. 2480.25   3
  -3   1  -3 194101. 3553.19   2
  -3   1  -3 197174. 3446.91   1
   3   1  -3 203490. 3545.91   1
  -3  -1  -3 204143. 3374.08   2
   3   1  -3 204267. 2726.97   4
  -3  -1  -3 203543. 2630.52   4
  -3   1  -3 205368. 3248.23   4
   3   1  -2 155854. 3038.91   2
  -3   1  -2 154069. 2201.26   3
  -3  -1  -2 151198. 2817.57   2
   3   1  -2 157157. 1932.01   4
   3   1  -2 156214. 3001.50   1
  -3  -1  -2 155586. 1824.56   4
  -3   1  -2 154573. 2950.61   1
  -3   1  -2 155604. 3024.57   2
   3  -1  -2 156619. 2720.56   2
   3   1  -1 162756. 2987.87   2
  -3   1  -1 162699. 2402.58   3
   3  -1  -1 154288. 2712.97   2
   3  -1  -1 156864. 2628.15   3
   3   1  -1 158624. 2896.12   1
   3  -1  -1 160046. 2781.45   1
  -3   1  -1 152680. 2887.94   2
  -3  -1  -1 153211. 2824.93   2
  -3   1   0 492926. 4395.70   3
   3  -1   0 489687. 4278.03   3
   3  -1   0 483009. 4935.80   1
   3   1   0 488878. 4987.50   2
  -3   1   0 486817. 4907.13   2
  -3  -1   0 492826. 5104.23   2
   3  -1   0 499794. 4944.43   2
  -3  -1   1 139070. 2783.56   2
   3  -1   1 147287. 2190.34   3
  -3   1   1 142731. 2573.48   3
   3  -1   1 143130. 2772.63   1
  -3   1   1 142985. 2602.93   2
   3  -1   1 143108. 2797.26   2
   3   1   1 146054. 2692.49   2
  -3  -1   2 175011. 3228.38   2
   3  -1   2 169833. 2267.32   3
  -3   1   2 170661. 3022.17   3
   3  -1   2 169946. 3104.63   1
  -3   1   2 163587. 2771.74   2
   3  -1   2 170845. 3203.33   2
   3   1   2 167145. 2902.52   2
  -3  -1   2 170071. 1996.06   4
   3   1   2 169294. 1961.86   4
  -3  -1   3 191527. 3531.86   2
   3  -1   3 191937. 2431.96   3
   3   1   3 193101. 2614.22   4
  -3   1   3 190360. 3137.85   4
   3  -1   3 192621. 3428.10   1
  -3  -1   3 192234. 2612.37   4
  -3   1   3 195499. 3503.50   3
  -3   1   3 194876. 3043.50   2
   3   1   3 192131. 3187.52   2
   3  -1   3 195473. 3607.25   2
  -3  -1   4 298574. 4596.87   2
   3  -1   4 295353. 3117.01   3
   3  -1   4 304123. 4495.09   1
  -3   1   4 306872. 4689.47   3
   3   1   4 288693. 3738.34   4
  -3   1   4 294194. 4202.55   4
   3   1   4 296702. 3858.56   1
   3  -1   4 295036. 4628.48   2
  -3  -1   4 297842. 3767.30   4
  -3   1   4 295255. 3918.35   2
   3   1   4 286598. 4066.35   2
  -3  -1   5 51257.8 1994.96   2
   3  -1   5 49635.5 1893.71   1
   3  -1   5 51227.8 1414.31   3
   3   1   5 48526.0 884.441   3
   3  -1   5 50542.4 1959.83   4
   3   1   5 47923.6 1604.04   1
  -3  -1   5 50072.9 1914.46   1
  -3  -1   5 51322.7 1770.34   4
   3  -1   5 50361.1 2038.99   2
  -3   1   5 48743.1 1873.60   4
  -3   1   5 51314.9 2065.14   3
   3   1   5 48597.6 1764.85   2
   3   1   5 50456.4 1780.67   4
  -3   1   5 50921.1 1712.22   2
  -3   1   6 365836. 4819.26   2
  -3   1   6 389226. 5992.40   3
   3  -1   6 377367. 4137.50   3
  -3  -1   6 368761. 5616.63   2
   3   1   6 373105. 3067.80   3
   3   1   6 376804. 4564.49   1
  -3   1   6 380456. 5624.22   4
  -3  -1   6 378488. 5454.82   1
   3  -1   6 372720. 5359.37   1
   3  -1   6 374712. 5779.87   2
   3   1   6 368030. 5094.92   2
  -3  -1   6 373052. 5241.36   4
   3   1   6 373571. 5332.94   4
   3  -1   6 366070. 5674.36   4
  -3   1   7 156067. 3313.15   2
   3  -1   7 156223. 3584.21   1
   3   1   7 156295. 3000.62   1
   3   1   7 159346. 2371.13   3
  -3   1   7 151835. 4029.40   3
   3   1   7 153130. 3716.76   4
   3  -1   7 156951. 2942.84   3
  -3  -1   7 155512. 3632.41   1
   3  -1   7 156090. 3960.25   4
   3  -1   7 150942. 3881.23   2
   3   1   7 160948. 3531.83   2
  -3  -1   7 157965. 3717.05   4
  -3   1   8 224807. 4180.90   2
   3  -1   8 234450. 4558.80   1
   3   1   8 236613. 3792.30   1
  -3   1   8 247107. 5337.42   3
   3  -1   8 235779. 3940.91   3
  -3  -1   8 238453. 4656.93   1
   3  -1   8 227950. 5004.67   2
   3   1   8 235015. 3252.41   3
   3   1   8 241188. 4545.15   2
  -3   1   9 12037.8 1066.85   2
   3  -1   9 12509.6 1023.16   3
   3   1   9 11786.2 847.245   3
  -3   1   9 11496.2 1308.79   3
  -3  -1   9 11674.2 1126.56   1
   3  -1   9 10919.3 1229.06   2
   3   1   9 12429.6 1123.40   2
   3  -1   9 12499.4 1142.23   1
   3   1   9 11689.7 883.702   1
   3  -1  10 45549.2 2045.37   3
   3   1  10 52919.3 1902.12   3
  -3  -1  10 52581.3 2367.27   1
   3  -1  10 53924.7 2372.46   1
  -3   1  10 52417.8 2273.66   2
   3  -1  10 54783.8 2703.00   2
   3   1  10 52707.2 2382.74   2
   3   1  10 52980.3 1901.16   1
  -3   1  10 51488.2 2744.70   3
   3   1  11 35626.0 1693.33   3
  -3   1  11 35631.6 2418.29   3
   3   1  11 37196.6 1605.03   1
   3  -1  11 37464.1 2372.06   2
   3   1  11 36006.2 2078.20   2
   3  -1  11 32375.6 1942.95   1
   3  -1  12 69456.8 2882.01   1
   3  -1  12 66515.1 3281.38   2
   3   1  12 73897.2 3047.93   2
  -3   1  12 67468.2 3493.23   3
   3  -1  13 5697.19 1063.76   2
   3   1  13 6140.85 978.191   2
  -3   1  13 4281.89 1003.93   3
  -3   1  14 17761.8 2015.69   3
   3  -1  14 23391.2 2118.79   2
   3  -1  15 7855.74 1288.75   2
   3   2 -14 959.713 662.778   4
   3   2 -13 1170.48 632.645   4
  -3  -2 -13 1156.33 729.966   4
  -3   2 -12 869.996 720.046   4
  -3  -2 -12 696.175 626.053   4
   3   2 -12 1771.06 753.376   4
   3   2 -11 23062.9 1937.23   4
  -3  -2 -11 22776.9 1900.62   4
  -3   2 -11 20764.1 1899.02   4
  -3   2 -10 3929.71 855.533   4
   3   2 -10 3960.52 864.457   4
   3  -2 -10 3440.21 432.478   1
  -3  -2 -10 4722.49 901.046   4
   3   2  -9 607.123 427.736   4
   3  -2  -9 777.708 271.130   1
  -3  -2  -9 289.849 437.895   4
  -3   2  -9-89.9920 516.491   4
   3   2  -8 15988.7 1388.92   4
  -3  -2  -8 15911.1 1318.72   4
   3  -2  -8 14845.5 874.290   1
  -3   2  -8 15499.5 1413.13   4
  -3  -2  -7 8602.68 937.473   4
  -3   2  -7 9332.89 982.641   1
   3   2  -7 9858.24 1026.47   4
  -3   2  -7 9612.62 1073.30   4
   3  -2  -7 9582.74 731.308   1
  -3  -2  -7 9261.44 841.257   2
   3   2  -7 10170.7 1048.94   1
  -3   2  -6 55383.1 2290.32   4
  -3  -2  -6 59622.5 2077.23   4
  -3   2  -6 59035.8 2314.91   1
   3  -2  -6 56307.8 1681.69   1
  -3  -2  -6 57594.1 1949.11   2
   3   2  -6 58714.0 2324.62   1
   3   2  -6 55783.3 2120.90   4
  -3  -2  -5 4023.21 542.939   4
   3   2  -5 2727.25 537.562   1
  -3   2  -5 4049.47 703.237   4
  -3   2  -5 3633.16 618.446   1
   3  -2  -5 3537.85 437.001   1
   3   2  -5 2888.16 516.161   4
  -3  -2  -5 2546.92 434.943   2
   3  -2  -4 8343.21 652.812   2
  -3   2  -4 8535.03 712.605   3
  -3  -2  -4 8410.30 443.397   3
  -3   2  -4 9043.10 852.024   1
  -3   2  -4 8703.19 846.689   4
   3  -2  -4 8087.94 648.369   1
  -3   2  -4 9206.98 894.256   2
   3   2  -4 9395.86 893.763   1
  -3  -2  -4 9381.13 756.292   2
   3   2  -4 8614.15 703.716   4
  -3  -2  -3 41194.9 1001.82   3
  -3   2  -3 42014.1 1458.12   3
  -3   2  -3 38926.6 1679.00   1
   3  -2  -3 40557.7 1699.51   3
   3  -2  -3 43141.8 1463.54   1
   3   2  -3 42778.7 1307.10   4
  -3   2  -3 39214.5 1641.01   4
  -3  -2  -3 41255.7 1514.73   2
  -3   2  -3 38182.9 1683.55   2
   3   2  -3 41410.4 1744.15   1
   3  -2  -3 40957.6 1378.88   2
  -3   2  -2 119483. 2481.19   3
   3  -2  -2 114674. 2717.89   3
  -3   2  -2 120146. 2831.20   1
   3  -2  -2 117013. 2447.09   1
   3   2  -2 120018. 1807.95   4
  -3  -2  -2 119594. 2544.78   2
   3   2  -2 119185. 2846.15   1
  -3   2  -2 117512. 2796.82   2
  -3  -2  -2 114184. 1828.62   3
   3  -2  -2 114234. 2311.26   2
  -3   2  -1 130903. 2866.10   1
  -3  -2  -1 130593. 2148.67   3
   3  -2  -1 131369. 2774.48   3
   3  -2  -1 139738. 2644.30   2
   3  -2  -1 132519. 2685.61   1
   3   2  -1 136978. 2940.23   1
  -3   2  -1 134113. 2838.36   2
   3   2  -1 136352. 1518.70   4
  -3  -2  -1 137626. 2778.39   2
  -3   2  -1 134989. 2700.82   3
  -3  -2   0 22524.5 989.552   3
  -3   2   0 24549.1 1215.37   3
   3  -2   0 22931.3 1138.70   3
   3   2   0 21555.2 1151.58   2
   3   2   0 22775.9 1183.12   1
  -3   2   0 23968.0 1197.81   1
  -3   2   0 21822.2 1100.51   2
   3  -2   0 24800.3 1193.25   2
  -3  -2   0 23664.2 1202.65   2
   3  -2   0 22479.0 1162.13   1
  -3  -2   1 133812. 2903.39   2
   3   2   1 131877. 2683.19   2
   3  -2   1 131610. 2859.32   1
  -3   2   1 135426. 2872.11   3
   3  -2   1 133916. 2645.50   3
   3   2   1 133095. 2708.19   1
  -3   2   1 134034. 2561.44   2
   3  -2   1 133773. 2866.37   2
   3   2   1 131077. 1420.98   4
  -3  -2   2 118352. 2849.48   2
   3  -2   2 116533. 2792.45   1
   3  -2   2 117516. 2472.42   3
  -3   2   2 115902. 2779.06   3
   3   2   2 114554. 2448.86   2
   3   2   2 114036. 2421.00   1
  -3  -2   2 117662. 2854.04   1
   3   2   2 118930. 1758.67   4
   3  -2   2 120090. 2841.17   2
  -3   2   2 113766. 2320.34   2
   3   2   3 42606.0 990.244   3
   3  -2   3 40186.1 1717.49   1
   3  -2   3 38129.9 1426.48   3
  -3  -2   3 41395.3 1772.96   2
  -3   2   3 41836.7 1772.45   3
   3   2   3 40602.7 1243.44   4
  -3  -2   3 38524.5 1239.19   4
  -3   2   3 41833.2 1385.02   2
  -3  -2   3 39908.6 1746.27   1
   3  -2   3 35138.9 1663.84   2
   3   2   3 41431.7 1466.09   2
  -3  -2   4 8464.57 858.236   2
   3   2   4 9175.92 468.094   3
   3  -2   4 8740.30 722.870   3
  -3   2   4 8971.29 901.844   3
   3  -2   4 10071.9 937.851   1
   3   2   4 8361.53 685.109   4
  -3  -2   4 9911.05 929.117   1
   3  -2   4 9322.14 941.733   2
  -3   2   4 8576.09 643.428   2
   3   2   4 10382.2 771.805   2
  -3  -2   4 7742.84 672.900   4
   3   2   5 3187.80 507.014   4
   3   2   5 2984.46 310.069   3
  -3  -2   5 3373.03 528.785   4
   3  -2   5 3507.88 613.476   1
   3  -2   5 3590.11 671.917   2
   3   2   5 2981.66 459.721   2
  -3   2   5 3906.10 624.916   4
   3  -2   5 3052.84 476.451   3
   3   2   5 2966.93 418.126   1
  -3   2   5 3575.92 666.195   3
  -3  -2   5 3883.03 656.081   1
  -3   2   5 3231.03 425.297   2
   3  -2   6 58424.0 2306.39   1
  -3  -2   6 56590.9 2110.76   4
  -3   2   6 57228.0 2338.73   4
  -3   2   6 57769.3 2443.78   3
  -3   2   6 57510.4 1715.15   2
   3   2   6 58519.9 1415.08   3
   3   2   6 55567.1 1656.63   1
   3   2   6 59253.4 1902.92   2
   3   2   6 54267.7 2069.02   4
  -3  -2   6 59210.2 2368.07   1
   3  -2   6 56625.4 2408.54   2
   3  -2   6 58565.9 1955.51   3
   3  -2   7 10393.8 915.284   3
   3  -2   7 9386.24 1017.54   1
   3   2   7 9060.03 679.691   1
   3   2   7 10209.8 679.228   3
  -3   2   7 8897.69 1084.52   3
  -3  -2   7 9521.79 1042.50   1
   3   2   7 9894.93 856.964   2
   3   2   7 9844.98 977.617   4
   3  -2   7 10319.5 1125.53   2
  -3   2   7 10310.6 784.868   2
  -3  -2   7 10080.0 1024.45   4
   3  -2   8 17162.7 1215.37   3
   3   2   8 14894.2 896.754   3
  -3   2   8 15452.0 1424.95   3
   3  -2   8 14967.4 1421.65   2
   3   2   8 16235.6 892.396   1
   3   2   8 15530.9 1109.66   2
  -3  -2   8 15852.6 1350.58   1
   3  -2   8 14615.6 1283.44   1
  -3   2   8 16234.3 1025.33   2
  -3   2   9 739.325 305.248   2
   3  -2   9 338.038 377.173   3
   3   2   9 357.408 291.522   3
  -3   2   9 431.305 573.609   3
   3   2   9 518.633 327.991   2
   3  -2   9 99.9438 409.910   1
  -3  -2   9 152.843 401.248   1
   3   2   9 283.898 184.285   1
   3   2  10 5004.33 739.133   2
   3  -2  10 4142.74 880.780   2
  -3   2  10 3332.89 557.814   2
   3  -2  10 3865.54 673.460   3
   3  -2  10 4041.65 781.077   1
   3   2  10 2867.93 393.150   1
  -3   2  10 5209.09 1010.49   3
  -3  -2  10 3739.19 785.130   1
   3   2  10 3972.10 595.183   3
   3   2  11 23694.0 1418.43   3
  -3  -2  11 19120.4 1615.52   1
   3  -2  11 19795.2 1809.16   2
   3   2  11 22352.0 1508.18   2
   3  -2  11 20815.1 1685.75   1
  -3   2  11 21660.4 1949.42   3
   3  -2  12 1729.11 658.695   2
   3  -2  12 1149.45 571.197   1
  -3   2  12 891.008 559.278   3
  -3  -2  12 855.982 643.244   1
   3   2  12 1845.67 557.562   2
   3  -2  13-78.9542 570.396   2
   3  -2  13-88.8293 500.841   1
  -3   2  13-93.1967 442.297   3
  -3  -2  13 345.406 476.570   1
   3  -2  14 1865.24 889.259   2
  -3   2  14 238.517 668.237   3
   3  -2  15 577.120 661.999   2
  -3   3 -13 3256.84 1020.57   4
   3   3 -13 5827.59 1187.92   4
   3   3 -12 42512.5 2853.92   4
  -3   3 -12 41132.0 2913.21   4
  -3   3 -11 37876.7 2626.93   4
   3   3 -11 38662.6 2563.06   4
   3   3 -10 109299. 4008.19   4
  -3   3 -10 105892. 4106.04   4
   3  -3  -9 16725.2 725.060   1
  -3   3  -9 19054.2 1734.96   4
   3  -3  -9 17446.6 755.226   1
   3   3  -9 17844.7 1566.35   4
  -3   3  -8 106727. 3732.25   4
   3   3  -8 102689. 3433.12   4
   3  -3  -8 99719.4 1925.98   1
   3  -3  -8 99900.6 1986.93   1
   3  -3  -7 49452.3 1435.69   1
   3  -3  -7 50700.0 1517.76   1
  -3  -3  -7 50223.5 1766.80   2
   3   3  -7 50191.8 2250.50   4
  -3   3  -7 51780.6 2500.22   4
   3  -3  -6 55085.7 1569.60   1
   3   3  -6 55706.8 2183.67   4
  -3   3  -6 57323.3 2517.49   4
  -3  -3  -6 55801.6 1838.87   2
   3  -3  -5 16530.0 838.027   2
  -3   3  -5 13393.7 1175.75   1
   3  -3  -5 13726.0 834.446   1
  -3  -3  -5 12956.7 766.899   3
  -3  -3  -5 14144.9 924.806   2
   3   3  -5 14019.2 1217.47   1
   3   3  -5 14990.3 1067.54   4
  -3   3  -5 16366.1 1311.39   4
   3  -3  -4 274013. 4979.49   3
  -3   3  -4 282534. 4554.97   3
   3  -3  -4 272366. 3739.67   1
  -3   3  -4 281103. 5001.86   1
   3   3  -4 273298. 5027.99   1
  -3  -3  -4 279696. 3995.18   2
  -3  -3  -4 273978. 3461.18   3
   3   3  -4 271504. 4004.91   4
   3  -3  -4 276038. 3429.46   2
  -3   3  -4 281059. 5038.15   4
  -3   3  -3 164175. 3443.79   3
  -3  -3  -3 165181. 2826.15   3
   3  -3  -3 165668. 3006.85   1
  -3  -3  -3 165145. 3085.42   2
   3  -3  -3 162665. 3719.66   3
  -3   3  -3 162099. 3688.90   1
   3   3  -3 163957. 3745.80   1
   3  -3  -3 166026. 2745.77   2
   3   3  -3 166728. 2839.01   4
  -3   3  -2 301886. 4622.82   3
  -3  -3  -2 296941. 3866.91   3
   3  -3  -2 292777. 4886.30   3
   3  -3  -2 295007. 3826.41   2
  -3   3  -2 294591. 4793.23   1
   3  -3  -2 290292. 4118.83   1
  -3   3  -2 287044. 4634.36   2
   3   3  -2 285948. 4801.94   1
   3   3  -2 295139. 3433.97   4
  -3  -3  -2 291887. 4190.85   2
  -3  -3  -1 73168.9 2161.64   2
  -3  -3  -1 76466.0 2027.05   3
  -3   3  -1 78233.6 2395.64   3
   3  -3  -1 76314.0 2193.41   1
   3   3  -1 77872.1 1600.64   4
   3  -3  -1 74382.2 2405.66   3
  -3   3  -1 78496.2 2409.08   1
  -3   3  -1 74166.8 2246.79   2
   3   3  -1 75204.7 2357.24   1
   3  -3  -1 72440.2 2031.53   2
   3  -3   0 113989. 2793.07   1
   3  -3   0 116359. 2924.81   3
  -3   3   0 112566. 2811.97   1
  -3   3   0 113062. 2939.14   3
  -3  -3   0 120457. 2898.43   1
   3   3   0 109174. 2763.88   1
  -3   3   0 108903. 2600.76   2
   3  -3   0 111551. 2632.33   2
  -3  -3   0 119319. 2833.76   2
  -3  -3   0 115780. 2600.85   3
  -3  -3   1 80546.0 2311.73   3
  -3   3   1 82885.8 2576.71   3
  -3  -3   1 78820.1 2426.09   2
   3  -3   1 83430.4 2483.55   3
   3  -3   1 81024.2 2420.73   1
  -3   3   1 81247.5 2306.08   1
  -3  -3   1 80990.0 2484.29   1
   3   3   1 84215.2 2341.15   1
  -3   3   1 76723.1 2075.99   2
   3  -3   1 85020.5 2412.61   2
  -3  -3   2 289887. 4766.89   2
   3  -3   2 278096. 4500.81   3
  -3   3   2 289392. 4928.54   3
   3   3   2 285456. 4026.07   2
   3  -3   2 291479. 4767.01   1
  -3  -3   2 288853. 4613.03   3
  -3  -3   2 295353. 4886.49   1
  -3   3   2 283043. 4185.18   1
   3   3   2 287821. 4176.99   1
  -3   3   2 283201. 3734.92   2
   3  -3   2 289569. 4682.24   2
   3   3   2 281223. 3593.49   3
   3   3   2 287629. 3273.95   4
   3   3   3 172026. 3074.04   2
  -3  -3   3 171531. 3831.94   2
   3  -3   3 176195. 3845.62   1
   3   3   3 170049. 2694.34   3
   3  -3   3 171523. 3562.98   3
  -3   3   3 172801. 3921.23   3
   3   3   3 165978. 2772.03   4
  -3  -3   3 172163. 3887.09   1
   3   3   3 170358. 3114.27   1
   3  -3   3 171740. 3810.72   2
  -3   3   3 170646. 2764.12   2
   3  -3   4 266700. 4941.19   1
   3   3   4 268283. 3343.06   3
   3  -3   4 265143. 4485.59   3
  -3   3   4 264853. 5009.58   3
   3   3   4 267731. 3895.21   4
  -3  -3   4 263558. 4984.70   1
   3   3   4 259601. 3717.33   1
   3   3   4 276428. 3805.95   2
   3  -3   4 268275. 4977.82   2
  -3   3   4 259414. 3331.52   2
   3  -3   5 13747.4 1223.42   1
   3  -3   5 14193.1 1106.93   3
  -3   3   5 15722.2 1339.32   3
   3   3   5 14449.3 821.211   3
   3   3   5 14548.8 862.434   1
  -3  -3   5 14979.0 1288.31   1
   3  -3   5 15961.6 1328.55   2
  -3   3   5 14807.3 785.700   2
   3   3   5 13966.4 884.733   2
   3   3   5 14817.7 1061.82   4
   3  -3   6 50594.0 2345.48   1
   3  -3   6 55710.8 2197.34   3
   3   3   6 53051.7 1615.49   3
  -3   3   6 53974.7 2500.00   3
   3   3   6 52430.6 2122.95   4
   3   3   6 55224.8 1743.45   2
   3   3   6 56042.0 1615.28   1
   3   3   6 54286.5 1574.60   1
  -3  -3   6 56898.5 2509.18   1
   3  -3   6 54978.5 2526.64   2
  -3   3   6 54515.2 1482.64   2
  -3  -3   6 52717.5 2130.58   4
   3  -3   7 51231.8 2199.27   3
   3   3   7 52953.2 1726.83   3
   3   3   7 53414.6 1771.28   2
  -3  -3   7 51479.9 2286.11   4
   3   3   7 52751.4 1530.14   1
   3   3   7 53571.0 1506.36   1
  -3  -3   7 55176.2 2558.67   1
  -3   3   7 53325.6 2603.14   3
   3  -3   7 52982.7 2597.91   2
  -3   3   7 49186.7 1428.92   2
   3   3   7 50434.5 2232.31   4
   3  -3   7 52640.3 2464.63   1
   3   3   8 98408.6 1917.33   1
   3  -3   8 93703.8 3397.21   1
   3   3   8 93445.2 2437.99   3
  -3   3   8 100670. 3707.71   3
   3  -3   8 96530.9 3146.97   3
   3   3   8 98576.2 1915.41   1
  -3  -3   8 101423. 3557.96   1
   3  -3   8 98292.6 3665.94   2
  -3   3   8 100344. 2089.73   2
   3   3   8 97798.5 2477.19   2
   3   3   9 20119.1 777.834   1
  -3   3   9 21566.0 1856.10   3
   3   3   9 22120.3 1292.12   3
  -3  -3   9 22416.9 1791.36   1
  -3   3   9 20872.1 1004.43   2
   3  -3   9 20561.9 1797.52   2
   3   3   9 20148.7 1187.90   2
   3  -3   9 18779.3 1631.71   1
   3   3  10 104140. 2895.34   3
  -3   3  10 103673. 4103.74   3
   3  -3  10 100976. 3783.95   1
  -3  -3  10 104444. 3860.62   1
   3  -3  10 107273. 4160.32   2
   3   3  10 103095. 2731.54   2
  -3   3  11 35424.8 2544.64   3
   3  -3  11 38472.5 2438.26   1
  -3  -3  11 34650.2 2346.18   1
   3  -3  11 34925.9 2524.83   2
  -3   3  12 41349.2 2855.81   3
  -3  -3  12 38265.4 2549.96   1
   3  -3  12 37621.8 2719.25   2
   3  -3  12 36902.2 2473.69   1
   3  -3  13 5312.24 1164.12   2
   3  -3  13 3552.61 886.197   1
  -3   3  13 4094.07 1061.11   3
  -3  -3  13 3338.26 907.546   1
  -3   3  14 23044.8 2336.77   3
   3  -3  14 21241.9 2266.90   2
   3   4 -13 1816.08 870.510   4
   3   4 -12-141.475 813.986   4
  -3   4 -12 72.9537 867.631   4
   3   4 -11 686.101 558.579   4
  -3   4 -11-385.290 714.004   4
   3   4 -10-486.684 660.190   4
  -3   4 -10 367.537 608.051   4
   3   4  -9 459.673 516.305   4
  -3   4  -9 564.250 586.864   4
  -3   4  -8 461.048 528.929   4
   3  -4  -8 27.3883 128.454   1
   3   4  -8 315.368 436.334   4
   3  -4  -8 611.243 181.447   1
   3   4  -7 255.416 352.592   4
  -3  -4  -7 727.720 274.834   2
   3  -4  -7 286.440 204.485   1
   3   4  -6 830.733 471.176   4
  -3   4  -6 1195.50 661.784   4
  -3  -4  -6 492.740 237.275   2
   3  -4  -6 779.176 283.807   1
  -3  -4  -6 664.332 299.052   3
   3   4  -5 26068.2 1488.79   4
   3  -4  -5 28030.0 1011.31   2
   3  -4  -5 24126.8 1153.32   1
  -3  -4  -5 26496.2 1360.38   3
  -3   4  -5 27976.1 1703.66   3
  -3  -4  -5 26886.8 1270.82   2
  -3   4  -5 26026.8 1797.13   4
   3  -4  -4 6472.81 542.268   2
  -3  -4  -4 7364.75 739.122   3
  -3   4  -4 6870.28 899.787   3
  -3  -4  -4 7588.05 701.723   2
   3  -4  -4 6028.49 635.766   1
   3   4  -4 7259.23 769.371   4
   3   4  -3 1566.56 378.749   4
   3  -4  -3 1283.44 370.696   1
   3  -4  -3 789.290 270.298   2
  -3  -4  -3 1795.06 402.629   2
  -3  -4  -3 1569.80 392.696   3
   3   4  -2 1221.26 373.844   4
   3   4  -2 2209.34 568.990   1
  -3   4  -2 2345.59 570.023   1
   3  -4  -2 1213.47 354.318   2
  -3  -4  -2 1078.52 364.300   2
   3  -4  -2 2008.90 457.589   1
  -3   4  -2 1705.45 504.695   3
  -3  -4  -2 1965.39 449.964   3
   3  -4  -2 796.711 391.538   3
   3  -4  -1 2528.32 495.842   1
   3   4  -1 3035.32 583.103   1
  -3   4  -1 3598.23 595.663   1
   3  -4  -1 2114.92 444.006   2
  -3   4  -1 3001.89 628.104   3
  -3  -4  -1 3236.63 573.770   3
   3  -4  -1 2876.93 566.691   3
  -3  -4  -1 2593.00 526.094   1
  -3  -4  -1 2937.82 513.265   2
   3   4   0 158.858 342.878   1
   3  -4   0-51.7224 313.863   1
   3  -4   0 33.9482 269.414   2
  -3   4   0-193.003 264.916   1
  -3  -4   0 39.2620 278.375   3
  -3   4   0 322.513 363.723   3
   3  -4   0 21.0555 315.344   3
  -3  -4   0-88.9976 333.842   1
  -3  -4   0-40.4161 248.836   2
   3   4   1 2886.77 527.735   1
   3  -4   1 2978.39 559.303   1
   3   4   1 2525.18 503.681   3
   3  -4   1 1499.65 477.165   2
  -3  -4   1 2663.34 537.263   3
  -3  -4   1 2115.47 518.797   2
  -3   4   1 2033.26 580.967   3
   3  -4   1 2159.46 514.125   3
  -3   4   1 3272.75 498.606   2
  -3   4   1 2419.57 492.177   1
  -3  -4   1 2698.16 581.448   1
   3  -4   2 1502.11 474.524   2
  -3   4   2 1690.36 413.533   1
   3   4   2 1542.01 404.998   1
   3   4   2 1764.51 429.383   3
  -3  -4   2 2489.31 545.493   3
  -3   4   2 1622.85 344.665   2
  -3  -4   2 1621.97 451.332   2
  -3   4   2 1075.66 506.917   3
   3  -4   2 2043.05 533.346   3
  -3  -4   2 1567.93 501.133   1
   3  -4   2 1257.25 455.664   1
   3   4   3 1766.40 375.949   4
   3   4   3 1645.73 382.742   1
   3  -4   3 1522.50 495.799   1
  -3  -4   3 1531.04 568.438   3
   3   4   3 1843.89 417.634   3
   3  -4   3 1783.02 528.964   3
   3  -4   3 1503.39 515.383   2
  -3   4   3 1926.22 636.647   3
  -3   4   3 1565.81 412.290   1
  -3  -4   3 1422.40 523.123   1
  -3   4   3 1741.15 346.862   2
   3  -4   4 6361.59 932.158   1
   3  -4   4 6868.22 906.171   2
   3   4   4 6452.62 679.925   3
   3  -4   4 7163.56 908.220   3
  -3   4   4 6726.73 943.583   3
  -3   4   4 6384.91 550.522   2
   3   4   4 6467.08 656.543   1
  -3  -4   4 7085.20 966.130   1
   3   4   4 5995.31 671.385   4
   3  -4   5 24354.4 1705.62   1
   3   4   5 25627.6 1201.50   2
   3   4   5 28119.5 1359.42   3
   3  -4   5 25465.7 1644.98   3
  -3   4   5 27670.9 1889.64   3
   3   4   5 26032.7 1475.83   4
  -3  -4   5 25059.0 1756.72   1
  -3   4   5 25521.5 959.477   2
   3  -4   5 27020.4 1804.01   2
   3   4   5 24870.6 1191.07   1
   3   4   6 650.324 242.705   1
   3  -4   6 1114.06 532.472   2
   3   4   6 708.856 256.961   2
   3   4   6 773.339 402.708   3
   3  -4   6 1016.74 531.145   3
   3   4   6 225.430 354.906   4
  -3   4   6-4.73974 460.899   3
   3  -4   6 634.386 466.494   1
  -3  -4   6-62.1506 455.467   1
  -3   4   6 423.825 166.486   2
   3   4   7 406.466 191.666   1
  -3   4   7 503.016 130.621   2
   3   4   7 303.805 208.167   2
   3   4   7 406.705 304.733   3
   3  -4   7-287.953 614.654   2
  -3   4   7-380.969 638.478   3
   3  -4   7 235.142 414.624   1
  -3  -4   7 512.097 510.497   1
   3   4   7 367.144 181.932   1
  -3   4   8 389.287 104.953   2
   3  -4   8-170.469 722.822   2
   3   4   8 361.024 143.065   1
   3   4   8 565.719 274.574   2
   3   4   8 326.155 351.584   3
  -3   4   8 1198.04 542.536   3
   3   4   8 589.657 169.142   1
   3  -4   8-85.5186 572.274   1
  -3  -4   8 637.696 575.117   1
   3  -4   9 1196.57 655.330   2
   3   4   9 379.845 255.192   2
   3   4   9 369.742 348.089   3
   3  -4   9 504.668 508.546   1
  -3   4   9 1161.10 542.674   3
  -3  -4   9 328.749 446.570   1
   3  -4  10-147.323 610.723   2
   3  -4  10-253.285 670.396   1
   3   4  10-207.480 322.170   3
  -3   4  10 235.977 473.299   3
  -3  -4  10-1270.76 705.887   1
   3  -4  11-364.320 634.649   1
  -3   4  11-140.129 595.776   3
  -3  -4  11 28.5940 504.447   1
   3  -4  11-296.903 710.687   2
   3  -4  12 812.194 748.579   2
   3  -4  12 434.116 544.163   1
  -3   4  12-147.428 587.696   3
  -3  -4  12-510.086 642.314   1
   3  -4  13 789.680 621.258   2
   3  -4  13 970.456 530.754   1
  -3  -4  13 889.764 576.597   1
   3  -4  14 721.135 628.699   1
  -3  -4  14-56.5764 721.942   1
   3   5 -12 26473.6 2416.41   4
  -3   5 -11 15737.0 1896.96   4
   3   5 -11 21664.3 2074.35   4
   3   5 -10 56367.1 3100.69   4
  -3   5 -10 59545.7 3401.75   4
   3   5  -9 7523.43 1121.60   4
  -3   5  -9 6948.07 1246.06   4
  -3   5  -8 51098.0 2950.02   4
   3   5  -8 54414.2 2710.43   4
  -3  -5  -7 37528.8 1855.12   3
  -3   5  -7 38676.3 2519.74   4
   3   5  -7 36043.1 2133.97   4
  -3  -5  -7 35460.1 1288.98   2
   3  -5  -7 33092.5 1198.11   1
   3  -5  -6 96187.7 2279.61   1
  -3  -5  -6 88889.0 2856.13   3
  -3  -5  -6 96370.6 2257.60   2
   3   5  -6 94104.6 3186.65   4
  -3   5  -6 97193.2 3773.60   4
   3  -5  -5 17201.8 761.680   2
   3  -5  -5 17898.7 1091.59   1
  -3   5  -5 18293.9 1535.72   3
   3   5  -5 18086.8 1372.61   4
  -3  -5  -5 18716.2 1326.32   3
  -3   5  -5 19907.8 1753.60   4
  -3  -5  -5 19867.4 1108.16   2
   3  -5  -4 144776. 3194.09   1
  -3  -5  -4 144236. 3680.15   3
  -3   5  -4 154522. 4265.49   3
   3  -5  -4 147124. 2546.31   2
  -3  -5  -4 144232. 3055.87   2
   3   5  -4 146975. 3571.34   4
   3  -5  -3 70285.9 2322.31   1
  -3   5  -3 71671.8 2887.25   3
  -3  -5  -3 68395.9 2599.40   3
   3  -5  -3 71767.8 1998.46   2
  -3  -5  -3 70342.2 2244.85   2
   3   5  -3 69443.4 2365.49   4
  -3  -5  -2 271662. 5200.77   3
   3  -5  -2 285789. 4844.98   1
  -3   5  -2 277782. 5667.91   3
  -3  -5  -2 275280. 4604.70   2
   3   5  -2 286288. 4554.16   4
  -3  -5  -2 276863. 4866.37   1
   3  -5  -2 284034. 4313.55   2
  -3  -5  -1 56344.4 2395.72   3
  -3   5  -1 60888.8 2670.54   3
  -3  -5  -1 60856.1 2372.58   1
  -3  -5  -1 59545.9 2254.41   2
   3  -5  -1 60495.0 2327.86   1
   3  -5  -1 59976.7 2117.73   2
   3  -5   0 182674. 4168.11   1
  -3  -5   0 181679. 4334.19   3
  -3   5   0 184034. 4597.35   3
  -3   5   0 173735. 4124.38   1
  -3  -5   0 174400. 3988.18   2
  -3  -5   0 178906. 4212.93   1
   3  -5   0 176624. 3828.36   2
   3   5   0 176674. 4183.90   1
   3  -5   1 63403.5 2568.25   1
  -3  -5   1 56519.9 2429.06   2
   3   5   1 59925.4 2334.83   3
  -3  -5   1 63560.5 2618.50   3
  -3   5   1 64400.5 2797.93   3
  -3   5   1 60160.8 2365.05   1
  -3  -5   1 67192.0 2670.09   1
   3  -5   1 62057.9 2387.13   2
   3   5   1 60396.6 2383.77   1
   3  -5   2 272569. 5453.67   1
   3   5   2 281585. 4904.64   3
  -3   5   2 282414. 4960.73   1
  -3  -5   2 290640. 5669.95   1
   3  -5   2 274396. 5247.43   2
   3   5   2 271183. 4821.96   1
  -3   5   2 277157. 5852.81   3
   3   5   3 68803.1 2409.50   3
  -3   5   3 66144.8 2931.33   3
  -3   5   3 69731.6 2389.29   1
  -3  -5   3 66395.3 2816.60   1
   3  -5   3 68892.3 2835.86   1
   3  -5   3 70757.3 2807.75   2
   3   5   3 67141.9 2311.67   1
   3   5   4 143739. 3486.79   4
   3   5   4 145850. 3462.35   3
  -3   5   4 146926. 4427.69   3
  -3  -5   4 146569. 4300.07   1
  -3   5   4 143315. 3291.12   1
   3  -5   4 142134. 4160.04   2
   3   5   4 143183. 3221.85   1
   3  -5   4 147785. 4278.19   1
  -3   5   5 17272.8 1630.78   3
   3   5   5 15549.2 1191.33   3
  -3  -5   5 14857.9 1497.44   1
   3  -5   5 17237.9 1577.54   2
   3   5   5 16118.9 1053.25   1
   3   5   5 17239.0 1291.79   4
   3  -5   5 15648.1 1528.62   1
   3   5   6 92228.9 2827.31   3
  -3   5   6 96099.0 3806.60   3
   3  -5   6 97117.1 3720.69   1
  -3  -5   6 98082.7 3776.27   1
   3  -5   6 98621.8 3808.62   2
   3   5   6 93178.3 2279.83   1
  -3   5   7 36597.6 2450.81   3
   3   5   7 33092.3 1237.99   1
  -3  -5   7 36313.4 2406.53   1
   3  -5   7 37310.5 2468.97   2
   3   5   7 31420.6 1704.92   3
   3  -5   7 35276.1 2345.42   1
   3   5   8 51550.5 2211.01   3
  -3   5   8 47109.1 2884.54   3
  -3  -5   8 49070.0 2871.46   1
   3  -5   8 48235.9 2893.30   2
   3  -5   8 53063.8 2988.00   1
   3  -5   9 6868.95 1241.62   2
   3   5   9 5071.98 771.472   3
   3  -5   9 4955.01 1064.40   1
  -3   5   9 5214.37 1089.47   3
  -3  -5   9 6577.91 1169.26   1
  -3   5  10 63583.5 3584.75   3
   3  -5  10 61858.7 3446.66   1
  -3  -5  10 59785.3 3367.24   1
   3  -5  10 59249.9 3475.51   2
  -3   5  11 21224.3 2182.23   3
  -3  -5  11 19978.3 2051.20   1
   3  -5  11 20933.8 2183.03   2
   3  -5  11 18273.2 1977.71   1
  -3   5  12 24540.2 2437.06   3
  -3  -5  12 18640.1 2095.33   1
   3  -5  12 23714.1 2408.95   2
   3  -5  12 22578.3 2270.16   1
   3  -5  13 3286.24 1014.72   1
  -3  -5  13 4202.89 1147.16   1
   3   6 -12-208.740 787.196   4
   3   6 -11 1957.82 697.116   4
  -3   6 -10 2367.12 927.440   4
   3   6 -10 3474.27 941.321   4
   3   6  -9 3109.91 864.773   4
  -3   6  -9 3367.42 977.285   4
   3   6  -8 5200.45 982.216   4
  -3   6  -8 5013.32 1109.56   4
   3   6  -7 4228.37 838.329   4
  -3   6  -7 4058.54 1020.89   4
   3   6  -6 132.742 431.181   4
   3  -6  -6 112.085 234.189   1
   3  -6  -5 6784.24 451.843   2
   3   6  -5 8295.47 1024.10   4
  -3   6  -5 6431.54 1091.64   4
  -3   6  -5 6947.06 1094.08   3
  -3  -6  -5 7297.27 699.107   2
   3  -6  -5 7058.73 767.143   1
   3   6  -4-186.420 439.254   4
  -3  -6  -4 769.699 293.858   2
   3  -6  -4 192.164 227.429   2
  -3   6  -4 31.6761 492.076   3
   3  -6  -4 560.932 401.326   1
   3   6  -3 1357.59 483.566   4
   3  -6  -3 35.8906 216.536   2
  -3  -6  -3 1237.52 378.874   2
  -3   6  -3 1217.53 682.904   3
   3  -6  -3 443.236 354.429   1
   3  -6  -2 5889.44 741.986   2
  -3   6  -2 6296.25 1016.58   3
  -3  -6  -2 6985.57 909.180   1
   3  -6  -2 6756.17 860.495   1
  -3  -6  -2 7940.68 875.546   2
  -3  -6  -1 11393.5 1092.14   2
  -3   6  -1 8786.36 1203.98   3
  -3  -6  -1 13433.8 1242.24   1
   3  -6  -1 11063.6 1023.73   2
   3  -6  -1 10686.2 1101.30   1
  -3   6   0 52717.6 2758.53   3
   3  -6   0 55505.0 2510.82   1
  -3  -6   0 53489.5 2513.71   1
   3  -6   0 51601.5 2241.02   2
   3   6   1 11723.9 1231.05   3
  -3   6   1 11471.7 1323.54   3
  -3  -6   1 10873.3 1195.58   1
   3  -6   1 9992.77 1109.46   2
   3  -6   1 13366.4 1313.69   1
   3  -6   2 5934.55 922.348   2
   3   6   2 6493.40 923.667   3
  -3   6   2 5535.34 1036.79   3
   3  -6   2 6388.66 972.768   1
  -3  -6   2 8633.79 1117.57   1
  -3   6   3-63.7080 302.714   1
   3   6   3 950.016 483.887   3
   3  -6   3 174.188 474.830   2
   3   6   3 908.291 354.193   1
  -3  -6   3 916.616 477.597   1
  -3   6   3 1095.46 632.692   3
   3  -6   3 773.501 496.799   1
   3   6   4 485.286 415.668   3
   3   6   4 171.738 297.981   1
  -3   6   4 723.940 522.909   3
   3  -6   4-214.201 516.900   1
   3  -6   4 367.346 460.152   2
  -3  -6   4 267.840 416.033   1
  -3   6   4 617.175 357.411   1
   3  -6   5 6290.97 1115.76   2
   3   6   5 5357.26 833.171   3
   3   6   5 6037.45 720.535   1
  -3   6   5 7442.19 1202.20   3
   3  -6   5 6085.90 1043.90   1
  -3  -6   5 7780.16 1163.62   1
   3  -6   6 233.727 593.086   2
   3   6   6-66.4095 371.177   3
  -3   6   6 584.827 568.084   3
   3  -6   6 555.565 612.241   1
  -3  -6   6-1388.29 760.805   1
   3   6   7 5850.38 863.476   3
   3  -6   7 4023.51 956.011   1
  -3   6   7 5059.42 1121.34   3
  -3  -6   7 6273.52 1107.23   1
   3  -6   7 5053.27 1042.29   2
   3  -6   8 5243.28 1137.10   2
  -3  -6   8 3781.72 1033.75   1
   3   6   8 4280.34 759.769   3
   3  -6   8 4278.45 981.842   1
  -3   6   8 2570.21 944.189   3
   3  -6   9 3090.50 985.983   1
   3   6   9 2030.58 612.405   3
  -3   6   9 2284.45 932.204   3
  -3  -6   9 2918.62 936.529   1
   3  -6   9 3119.66 975.108   2
   3  -6  10 2853.99 902.147   2
   3  -6  10 5039.24 1136.99   1
  -3   6  10 4693.53 1175.52   3
  -3  -6  10 3759.64 1081.06   1
   3  -6  11 974.161 545.681   1
  -3   6  11-857.703 954.195   3
  -3  -6  11-4.03272 783.633   1
   3   7 -11 16116.1 1950.77   4
   3   7 -10 18810.6 2006.28   4
   3   7  -9 3135.99 887.671   4
  -3   7  -9 2694.92 1076.55   4
   3   7  -8 14315.9 1593.53   4
  -3   7  -8 17660.5 2036.13   4
   3   7  -7 20296.0 1813.05   4
  -3   7  -7 19800.9 2090.34   4
  -3   7  -6 68220.1 3711.76   4
   3   7  -6 71552.0 3202.77   4
  -3   7  -5 50209.4 3009.67   3
   3  -7  -5 48343.6 2101.32   1
   3   7  -5 51107.4 2637.50   4
  -3   7  -5 46897.6 3049.37   4
   3  -7  -4 33787.6 1868.98   1
  -3   7  -4 32840.3 2446.18   3
   3  -7  -4 32983.4 1326.86   2
   3   7  -4 32110.6 2044.62   4
   3  -7  -3 25681.4 1400.52   2
  -3   7  -3 28895.6 2266.85   3
   3   7  -3 28190.7 1857.17   4
   3  -7  -3 28517.6 1773.74   1
  -3  -7  -3 27590.5 1784.13   1
  -3   7  -2 101264. 4089.50   3
  -3  -7  -2 113395. 3665.39   1
   3  -7  -2 101826. 2981.66   2
   3  -7  -2 102685. 3472.48   1
   3  -7  -1 35210.2 2135.31   1
  -3  -7  -1 35381.5 2157.66   1
   3  -7  -1 32126.0 1814.10   2
  -3   7  -1 34096.6 2411.98   3
  -3   7   0 128776. 4596.78   3
  -3  -7   0 130644. 4177.85   1
   3  -7   0 126311. 3749.29   2
   3  -7   0 129718. 4142.20   1
   3   7   1 36662.4 2272.66   3
  -3   7   1 37585.3 2544.89   3
  -3  -7   1 35485.8 2274.79   1
   3  -7   1 34990.5 2105.22   2
   3  -7   1 33601.5 2220.69   1
   3   7   2 106088. 3740.75   3
  -3   7   2 108648. 4258.57   3
  -3  -7   2 99604.6 3856.37   1
   3  -7   2 96836.6 3626.79   2
   3  -7   2 106834. 3982.18   1
   3   7   3 32110.2 2082.17   3
  -3   7   3 30653.7 2345.17   3
  -3  -7   3 31484.5 2275.38   1
   3  -7   3 28113.0 2054.63   2
   3  -7   3 29210.3 2211.10   1
   3   7   4 25817.1 1884.82   3
  -3   7   4 25615.4 2211.41   3
   3  -7   4 27429.3 2176.76   1
  -3  -7   4 25082.7 2124.04   1
   3  -7   4 25124.1 2020.01   2
   3   7   5 60788.6 2823.92   3
  -3   7   5 56337.4 3297.35   3
  -3  -7   5 56317.4 3183.77   1
   3  -7   5 59146.8 3202.91   2
   3  -7   5 54312.0 3112.74   1
  -3   7   6 67106.8 3680.40   3
   3  -7   6 69995.2 3654.57   1
  -3  -7   6 72525.2 3706.77   1
   3  -7   6 66642.2 3545.96   2
   3   7   6 72869.1 3090.97   3
  -3   7   7 18079.9 2006.02   3
   3   7   7 20527.9 1699.44   3
  -3  -7   7 19304.1 2026.31   1
   3  -7   7 18623.9 1993.04   2
   3  -7   7 17913.8 2007.62   1
   3  -7   8 13584.1 1800.33   2
   3   7   8 13198.9 1415.29   3
  -3   7   8 15204.4 1865.84   3
   3  -7   8 16036.8 1889.55   1
  -3  -7   8 16764.6 1960.69   1
   3  -7   9 2183.98 886.222   2
   3  -7   9 2882.16 943.211   1
  -3   7   9 2143.99 960.887   3
  -3  -7   9 1862.66 882.331   1
  -3   7  10 16577.4 2064.95   3
   3   8  -9 1606.52 675.240   4
   3   8  -8 7127.25 1227.76   4
   3   8  -7 1286.85 673.307   4
  -3   8  -7 2604.02 908.833   4
   3   8  -6 1280.64 611.935   4
  -3   8  -6 1453.11 774.525   4
   3   8  -5 5233.90 946.424   4
  -3   8  -5 4431.46 1140.23   4
  -3   8  -5 3489.32 1065.50   3
   3   8  -4 1635.82 641.684   4
   3  -8  -4 873.345 412.121   1
  -3   8  -4 2622.44 904.928   3
   3   8  -3 2097.79 665.309   4
   3  -8  -3 2704.52 659.952   1
  -3   8  -3 3572.93 983.197   3
  -3  -8  -3 2473.61 591.389   1
  -3   8  -2 14318.8 1733.72   3
  -3  -8  -2 12011.8 1330.51   1
   3  -8  -2 10017.2 1050.50   2
   3  -8  -2 13110.9 1367.64   1
   3  -8  -1 5425.83 878.668   2
  -3   8  -1 4731.28 1134.73   3
   3  -8  -1 6841.56 1088.57   1
  -3  -8  -1 5814.14 1001.51   1
  -3   8   0 24258.8 2220.30   3
   3  -8   0 24105.9 1969.64   1
  -3  -8   0 25705.5 2042.96   1
   3  -8   0 24073.9 1793.52   2
   3   8   1 6672.03 1120.74   3
   3  -8   1 5019.79 919.630   2
  -3   8   1 5952.65 1170.43   3
   3  -8   1 6198.78 1068.01   1
  -3  -8   1 6182.87 1106.08   1
   3  -8   2 11907.4 1423.11   2
   3   8   2 11420.6 1441.42   3
  -3   8   2 14130.4 1722.48   3
  -3  -8   2 12128.7 1497.61   1
   3  -8   2 14338.2 1630.05   1
   3  -8   3 1550.64 762.954   2
   3   8   3 1892.39 708.628   3
   3  -8   3 1505.90 645.016   1
  -3   8   3 2240.91 823.689   3
  -3  -8   3 2723.34 751.348   1
  -3  -8   4 2703.92 834.096   1
   3  -8   4 2083.30 774.679   2
   3   8   4 2149.46 718.087   3
   3  -8   4 1702.53 734.078   1
  -3   8   4 1814.89 777.582   3
   3  -8   5 3950.20 920.350   2
   3  -8   5 5783.69 1194.15   1
  -3  -8   5 4430.05 1034.65   1
   3   8   5 3668.43 886.658   3
  -3   8   5 3228.39 980.944   3
  -3  -8   6 1127.86 617.633   1
   3  -8   6 1932.64 835.802   2
   3   8   6 1826.69 688.524   3
  -3   8   6 1265.04 707.393   3
   3  -8   6 448.846 665.288   1
   3  -8   7 1611.81 683.081   2
   3  -8   7 2333.57 825.532   1
   3   8   7 891.090 516.009   3
  -3   8   7 3599.79 972.490   3
  -3  -8   7 1116.14 641.443   1
   3   9  -7 16348.7 1835.33   4
   3   9  -6 37855.7 2738.21   4
   3   9  -5 10031.9 1498.81   4
  -3   9  -4 30551.1 2745.93   3
   3   9  -4 28238.8 2250.84   4
  -3   9  -3 23485.8 2427.96   3
  -3  -9  -3 23575.9 1919.32   1
   3  -9  -3 26363.1 2017.89   1
   3   9  -3 22128.4 1965.54   4
  -3   9  -2 54259.1 3528.73   3
  -3  -9  -2 53192.8 2958.62   1
   3  -9  -2 56666.5 3024.13   1
   3   9  -2 53784.3 2980.30   4
   3  -9  -1 8798.21 1325.43   1
  -3   9  -1 11038.0 1672.15   3
  -3  -9  -1 10462.6 1441.68   1
  -3  -9   0 25867.2 2285.57   1
   3  -9   0 25740.1 1945.42   2
   3  -9   0 27436.4 2299.95   1
  -3   9   0 27826.6 2539.14   3
   3  -9   1 7970.17 1379.38   1
   3  -9   1 9837.15 1289.26   2
  -3   9   1 6628.16 1359.34   3
  -3  -9   1 10828.0 1545.48   1
   3   9   2 52345.4 3166.39   3
  -3  -9   2 47007.3 3112.81   1
   3  -9   2 53267.2 3074.91   2
   3  -9   2 48548.5 3144.53   1
  -3   9   2 53833.1 3491.59   3
   3   9   3 22136.2 2085.18   3
  -3   9   3 26116.1 2518.39   3
  -3  -9   3 23996.4 2291.70   1
   3  -9   3 20409.4 2022.12   2
   3  -9   3 24672.3 2357.38   1
   3   9   4 28634.3 2365.01   3
  -3   9   4 27882.4 2627.17   3
  -3  -9   4 34172.3 2755.02   1
   3  -9   4 30637.2 2586.74   2
   3  -9   4 29462.3 2570.30   1
   3  -9   5 7996.73 1428.58   2
   3   9   5 6088.59 1227.51   3
   3   9   6 40033.1 2791.80   3
   3  -9   6 46749.8 3360.51   2
   3 -10  -1-921.201 706.683   1
  -3 -10  -1-209.198 573.761   1
   3 -10   0 1917.17 758.370   1
  -3 -10   0 1142.21 712.955   1
   3 -10   1-843.217 663.205   1
  -3 -10   1 318.315 652.638   1
   3 -10   3-1791.58 688.378   2
   3  10   3 2114.79 827.863   3
   3 -10   4 2825.66 749.567   2
   3  10   4 1230.04 755.230   3
  -4   0 -14 13144.6 1758.66   4
  -4   0 -13 21120.2 2095.43   4
  -4   0 -12 52611.7 3033.87   4
  -4   0 -11 54792.4 2941.72   4
  -4   0 -10 36241.2 2250.83   4
   4   0  -9 49643.5 2209.59   1
  -4   0  -9 50665.4 2511.06   4
   4   0  -8 120643. 3325.23   1
  -4   0  -8 118352. 3525.48   4
  -4   0  -7 62715.3 2547.80   2
   4   0  -7 61649.7 2350.64   1
  -4   0  -7 68513.8 2497.56   4
  -4   0  -6 231715. 4206.18   4
   4   0  -6 226636. 4324.10   1
  -4   0  -6 233444. 4713.82   2
  -4   0  -5 273585. 4194.13   4
   4   0  -5 278074. 4657.09   1
  -4   0  -5 284198. 5022.65   2
   4   0  -4 171926. 3536.52   1
  -4   0  -4 167804. 3693.90   2
  -4   0  -4 171256. 2997.71   4
   4   0  -3 127291. 3029.40   2
  -4   0  -3 121253. 3015.49   2
  -4   0  -3 123354. 2285.52   4
   4   0  -2 328046. 4743.69   2
  -4   0  -2 325787. 2641.76   3
  -4   0  -2 317321. 4761.44   2
  -4   0  -2 314908. 3250.40   4
   4   0  -1 523837. 5878.00   2
  -4   0  -1 511545. 3911.41   3
  -4   0  -1 507482. 5884.81   2
  -4   0  -1 516920. 3715.82   4
  -4   0   0 512041. 4472.36   3
  -4   0   0 513101. 5863.38   2
   4   0   0 511775. 5747.16   2
  -4   0   1 498894. 4919.99   3
  -4   0   1 490691. 5709.70   2
   4   0   1 493261. 5737.72   2
   4   0   2 340248. 4740.16   1
  -4   0   2 333339. 3357.09   4
   4   0   2 345078. 4870.16   2
  -4   0   2 338658. 4823.86   2
   4   0   3 109444. 2767.06   1
  -4   0   3 110583. 2199.74   4
   4   0   3 114593. 2910.70   2
  -4   0   3 114892. 2866.70   2
  -4   0   4 185919. 3765.53   2
   4   0   4 179865. 3632.83   1
  -4   0   4 182368. 3160.30   4
   4   0   4 185485. 3848.41   2
   4   0   5 266588. 4510.99   1
  -4   0   5 270103. 4276.08   4
   4   0   5 277700. 4886.56   2
   4   0   5 266026. 4314.84   4
  -4   0   5 270578. 4714.10   2
  -4   0   6 231362. 4515.71   2
   4   0   6 215687. 1903.32   3
   4   0   6 230576. 4315.44   1
  -4   0   6 222378. 4222.12   4
   4   0   6 230901. 4654.15   2
   4   0   6 223804. 4311.56   4
  -4   0   7 68579.0 2598.08   2
   4   0   7 65973.8 1313.93   3
   4   0   7 64663.5 2377.53   1
   4   0   7 67073.7 2630.14   2
  -4   0   7 61709.3 2435.96   4
   4   0   7 67140.9 2567.81   4
   4   0   8 111676. 3191.45   1
   4   0   8 114525. 2046.34   3
   4   0   8 117812. 2000.96   3
   4   0   8 120570. 3675.40   2
   4   0   9 53266.3 2254.79   1
   4   0   9 50968.1 1542.31   3
   4   0   9 50685.4 1485.29   3
   4   0  10 27098.2 1668.16   1
   4   0  10 27393.8 1233.07   3
   4   0  10 30254.7 2034.26   2
   4   0  11 66151.6 3112.54   2
   4   0  11 63988.9 2621.28   1
  -4   0  12 44383.6 2971.73   3
   4   0  12 47825.7 2773.56   2
  -4   0  13 21247.2 2149.75   3
   4   0  13 22185.0 1960.28   2
   4   0  14 13740.5 1645.29   2
  -4  -1 -14 1922.09 865.096   4
   4   1 -14 1131.24 859.372   4
  -4  -1 -13 772.597 611.925   4
   4   1 -13 269.507 575.837   4
  -4   1 -13-763.674 932.411   4
  -4  -1 -12 2440.64 835.213   4
  -4   1 -12 2902.20 910.029   4
   4   1 -12 2302.91 782.821   4
   4   1 -11 7015.55 1113.70   4
  -4  -1 -11 8122.16 1201.31   4
  -4   1 -11 7338.77 1202.86   4
  -4   1 -10 7245.15 1110.65   4
  -4  -1 -10 6700.34 1014.53   4
   4   1 -10 5443.21 938.908   4
   4  -1 -10 7912.38 852.167   1
   4   1  -9 108.264 386.472   4
  -4  -1  -9 381.692 450.366   4
  -4   1  -9 807.159 567.432   4
   4  -1  -9 1334.80 446.881   1
   4   1  -8 14741.3 1318.34   4
  -4  -1  -8 14472.6 1266.63   2
   4  -1  -8 13114.5 1059.43   1
  -4  -1  -8 13974.0 1223.34   4
  -4   1  -8 16293.7 1399.08   4
  -4   1  -7 13581.8 1169.84   1
   4  -1  -7 13991.1 1088.76   1
  -4  -1  -7 11517.6 1072.35   2
   4   1  -7 13525.6 1182.65   1
   4   1  -7 12504.0 1129.50   4
  -4  -1  -7 13855.7 1131.33   4
  -4   1  -7 13549.1 1210.08   4
   4   1  -6 48394.7 1957.00   4
   4  -1  -6 49043.1 1928.15   1
  -4   1  -6 50026.3 2123.05   1
   4   1  -6 51056.1 2182.42   1
  -4  -1  -6 48224.3 2107.06   2
  -4  -1  -6 49941.3 1910.88   4
  -4   1  -6 51954.6 2121.57   4
  -4   1  -5 13479.7 1034.73   4
   4   1  -5 13904.9 965.351   4
   4  -1  -5 12686.1 984.458   1
  -4   1  -5 15070.9 1140.61   1
   4   1  -5 13394.8 1133.57   1
  -4   1  -5 11113.6 1069.40   2
  -4  -1  -5 11488.6 1020.27   2
  -4  -1  -5 13367.4 927.662   4
   4   1  -4 682.603 275.650   4
  -4   1  -4 561.585 336.781   4
  -4   1  -4 765.845 365.464   2
  -4   1  -4 565.088 341.572   1
  -4  -1  -4 604.056 334.882   2
   4  -1  -4 861.837 379.283   2
  -4  -1  -4 910.861 276.202   4
   4   1  -4 353.648 286.997   1
   4  -1  -3 7924.22 786.169   2
  -4   1  -3 8440.77 551.669   3
  -4   1  -3 8276.75 731.268   4
   4   1  -3 7863.32 810.804   1
  -4   1  -3 7879.78 819.211   2
  -4  -1  -3 8200.78 807.233   2
  -4  -1  -3 7657.55 533.505   4
   4   1  -2 48651.4 1916.69   2
  -4   1  -2 47892.4 1381.63   3
  -4  -1  -2 47794.0 851.573   3
   4  -1  -2 48712.4 1777.45   2
   4   1  -2 48318.1 1872.41   1
  -4   1  -2 48048.0 1898.19   2
  -4  -1  -2 47039.6 1842.67   2
  -4  -1  -2 48309.3 1026.80   4
   4   1  -1 30083.2 1487.98   2
  -4   1  -1 30031.1 1155.04   3
   4  -1  -1 30141.8 1416.74   1
  -4   1  -1 29065.9 1449.97   2
  -4  -1  -1 27599.4 1411.33   2
   4  -1  -1 29576.0 1398.59   2
   4  -1   0 95.6222 239.309   1
  -4   1   0 188.027 242.866   2
   4  -1   0 311.690 296.082   2
  -4  -1   0 155.322 297.313   2
   4   1   0 321.790 267.207   2
  -4   1   0 616.393 283.976   3
   4  -1   0 223.330 187.995   3
  -4   1   1 31229.4 1340.69   3
   4  -1   1 30128.2 1099.54   3
   4  -1   1 30645.6 1473.69   1
  -4   1   1 31132.9 1445.58   2
   4  -1   1 28857.2 1437.00   2
  -4  -1   1 29849.3 1489.98   2
   4   1   1 30821.9 1456.56   2
   4   1   2 48518.2 1823.34   2
   4  -1   2 47835.3 1299.57   3
  -4  -1   2 47986.1 1913.28   2
   4  -1   2 46976.5 1866.55   1
  -4  -1   2 49224.2 1079.37   4
   4  -1   2 49091.6 1952.93   2
  -4   1   2 47792.8 1758.06   2
  -4   1   2 50132.8 1799.86   3
   4  -1   3 7397.94 853.497   2
   4  -1   3 8877.58 547.804   3
  -4   1   3 9199.69 869.782   3
   4  -1   3 8957.46 867.162   1
  -4   1   3 8929.17 794.630   2
   4   1   3 8611.22 813.103   2
  -4  -1   3 8025.75 563.137   4
   4   1   3 8430.25 584.936   4
  -4  -1   3 7908.30 830.418   2
   4   1   4 475.428 247.503   4
   4  -1   4 205.510 397.163   2
   4   1   4 1098.09 420.319   2
  -4   1   4 899.976 312.502   4
  -4   1   4 580.196 332.947   2
  -4  -1   4 399.118 279.598   2
   4  -1   4 495.781 193.998   3
  -4  -1   4 659.317 264.964   4
   4   1   4 1331.87 389.833   1
  -4   1   4 400.212 300.726   3
   4  -1   4 1150.63 416.729   1
   4  -1   5 14320.8 718.220   3
   4  -1   5 13415.7 1107.84   1
  -4   1   5 13616.5 1176.33   3
   4   1   5 14061.9 1024.84   1
   4  -1   5 13376.7 1169.71   2
  -4  -1   5 12901.9 1116.75   2
  -4   1   5 15033.8 1092.42   4
   4   1   5 13786.2 1078.42   2
   4   1   5 13736.2 966.367   4
  -4  -1   5 13141.0 935.610   4
  -4   1   5 12280.8 972.884   2
  -4  -1   6 50819.2 2258.74   2
   4  -1   6 49174.2 2136.16   1
   4  -1   6 49432.6 1403.95   3
   4   1   6 48472.8 1894.53   1
  -4   1   6 46501.3 2272.98   3
   4   1   6 48678.0 2047.99   2
   4   1   6 47587.9 1937.47   4
   4  -1   6 49378.6 2284.84   2
  -4   1   6 46599.7 2058.59   4
  -4  -1   6 47956.7 1910.58   4
  -4   1   6 44058.9 1892.34   2
   4  -1   7 15250.2 1249.75   1
   4  -1   7 15289.9 860.266   3
   4   1   7 13138.3 1036.47   1
  -4   1   7 13394.5 1310.55   3
   4  -1   7 14976.9 1353.53   2
   4   1   7 16070.5 1264.85   2
  -4  -1   7 13602.7 1140.76   4
   4   1   7 14036.4 1179.07   4
  -4   1   7 13311.3 1102.19   2
   4  -1   8 15133.3 1306.05   1
   4   1   8 15920.3 650.447   3
   4   1   8 15616.2 1136.16   1
   4  -1   8 15279.0 934.674   3
   4   1   8 15142.5 639.287   3
  -4   1   8 15110.4 1462.89   3
   4  -1   8 15438.4 1446.05   2
   4   1   8 15783.4 1299.62   2
  -4   1   8 15132.1 1231.91   2
   4   1   9 753.831 332.520   1
   4  -1   9 699.054 503.698   2
   4   1   9 433.921 197.981   3
  -4   1   9 18.1822 393.885   2
   4  -1   9-24.0476 286.793   3
   4   1   9 562.681 209.214   3
   4   1   9 558.668 406.148   2
  -4   1   9 282.021 551.320   3
   4  -1   9 615.836 382.271   1
   4  -1  10 6275.88 1023.80   2
   4   1  10 7012.27 987.785   2
   4   1  10 5256.18 514.797   3
   4   1  10 6478.12 811.343   1
  -4   1  10 6064.77 1116.50   3
   4  -1  10 7122.16 995.830   1
   4  -1  11 8643.08 1259.40   2
   4   1  11 7427.74 1069.40   2
  -4   1  11 7490.71 1233.16   3
   4  -1  11 8121.83 1073.92   1
   4   1  11 5751.04 771.694   1
   4  -1  12 1916.95 663.519   2
   4   1  12 1964.55 657.195   2
   4  -1  12 1425.09 589.528   1
  -4   1  12 3681.13 1079.58   3
   4  -1  13 589.539 473.798   2
   4   1  13-2.70907 497.771   2
   4  -1  14 911.161 604.263   2
   4  -1  15 6468.04 1156.96   2
  -4  -2 -14 33744.0 2732.35   4
   4   2 -14 32338.8 2723.68   4
  -4  -2 -13 40497.5 2793.96   4
   4   2 -13 38339.8 2807.53   4
  -4   2 -13 36864.8 2834.47   4
  -4  -2 -12 63135.8 3298.59   4
  -4   2 -12 58847.9 3409.16   4
   4   2 -12 62632.8 3360.47   4
  -4  -2 -11 20523.7 1796.18   4
   4   2 -11 20338.6 1846.30   4
  -4   2 -11 20884.6 1966.01   4
   4   2 -10 50272.7 2699.07   4
  -4   2 -10 50582.7 2833.95   4
  -4  -2 -10 51795.7 2634.74   4
   4   2  -9 58787.7 2700.73   4
   4  -2  -9 58258.0 2033.72   1
  -4  -2  -9 62366.4 2699.25   4
  -4   2  -9 53187.4 2749.93   4
  -4  -2  -8 49054.6 2221.63   4
   4  -2  -8 50020.6 1916.46   1
  -4  -2  -8 50059.5 2174.62   2
   4   2  -8 50554.7 2350.98   4
  -4   2  -8 49187.8 2471.23   4
  -4  -2  -7 4722.76 693.508   4
   4   2  -7 4476.38 752.031   4
  -4  -2  -7 4585.02 688.742   2
  -4   2  -7 6143.71 888.049   4
   4  -2  -7 4951.19 654.015   1
  -4  -2  -6 37006.9 1640.12   4
   4   2  -6 39098.4 1760.00   4
   4  -2  -6 35779.3 1569.05   1
  -4  -2  -6 36761.3 1783.65   2
  -4   2  -6 38543.9 1972.59   4
   4  -2  -5 87654.8 2400.41   2
  -4   2  -5 83552.2 2828.45   1
   4  -2  -5 91346.2 2414.16   1
   4   2  -5 87617.2 2921.55   1
  -4  -2  -5 88718.8 2649.49   2
  -4  -2  -5 90830.8 2274.28   4
   4   2  -5 89682.9 2393.71   4
  -4   2  -5 83523.7 2732.13   4
   4  -2  -4 125657. 2841.15   2
  -4   2  -4 125948. 2608.02   3
  -4   2  -4 117489. 3256.49   1
   4  -2  -4 119411. 2776.22   1
   4   2  -4 120363. 3317.56   1
  -4   2  -4 116205. 3336.92   2
  -4  -2  -4 120137. 3039.67   2
   4   2  -4 119529. 2468.07   4
  -4   2  -4 127508. 3185.44   4
  -4   2  -3 73715.5 2010.40   3
   4  -2  -3 70493.1 2115.90   2
  -4   2  -3 69120.5 2429.04   1
   4  -2  -3 71061.8 2160.39   1
   4   2  -3 71284.6 2502.10   1
  -4   2  -3 67067.8 2444.78   2
  -4  -2  -3 70373.2 2285.99   2
   4   2  -3 71938.5 1633.69   4
  -4   2  -3 70630.1 2277.98   4
  -4  -2  -2 312471. 3022.34   3
  -4   2  -2 319865. 4287.31   3
   4  -2  -2 323692. 4520.37   2
   4  -2  -2 310341. 4759.61   3
   4  -2  -2 323850. 4628.04   1
  -4   2  -2 314210. 5034.98   1
   4   2  -2 317985. 5078.88   1
  -4   2  -2 318378. 5055.67   2
   4   2  -2 321139. 2714.18   4
  -4  -2  -2 317726. 4794.22   2
   4   2  -1 209758. 4015.36   2
  -4  -2  -1 206670. 2836.27   3
  -4   2  -1 205379. 3550.08   3
   4  -2  -1 204531. 3694.66   3
   4  -2  -1 214220. 3852.63   1
   4   2  -1 207599. 4034.01   1
  -4   2  -1 202376. 3971.32   1
  -4   2  -1 203878. 3905.38   2
   4  -2  -1 208757. 3703.98   2
  -4  -2  -1 215909. 3975.12   2
   4   2   0 315661. 4807.37   2
  -4  -2   0 319560. 4931.15   2
  -4   2   0 318510. 4539.12   3
   4  -2   0 306142. 4346.04   3
   4  -2   0 313400. 4755.54   1
   4   2   0 320244. 4822.14   1
  -4   2   0 310721. 4645.93   2
   4  -2   0 324602. 4775.43   2
   4   2   1 212539. 3871.97   2
  -4   2   1 203317. 3794.67   3
   4  -2   1 204950. 3449.27   3
   4  -2   1 212584. 4021.06   1
   4   2   1 205834. 3768.53   1
  -4   2   1 206351. 3718.16   2
   4  -2   1 211532. 4008.32   2
  -4  -2   1 219058. 4151.29   2
  -4  -2   2 305941. 5055.88   2
   4   2   2 315723. 2511.52   4
   4  -2   2 310747. 4130.22   3
  -4   2   2 308739. 4869.26   3
   4  -2   2 321417. 5053.85   1
   4  -2   2 320111. 5124.59   2
  -4   2   2 309782. 4444.14   2
   4   2   2 316773. 4637.86   2
  -4  -2   3 75533.7 2605.08   2
   4   2   3 73216.2 2241.00   2
   4  -2   3 73936.6 2531.89   1
   4  -2   3 74650.4 2025.73   3
  -4   2   3 73410.8 2492.86   3
  -4  -2   3 72864.5 1623.74   4
   4  -2   3 73148.3 2575.22   2
  -4   2   3 72174.2 2125.53   2
   4   2   3 74497.5 1590.10   4
  -4  -2   4 127967. 3494.79   2
   4  -2   4 117097. 3288.74   1
   4  -2   4 123467. 2650.31   3
  -4   2   4 130286. 3478.74   3
  -4   2   4 128368. 2826.67   2
   4   2   4 124328. 2432.00   4
   4  -2   4 120069. 3410.94   2
   4   2   4 120938. 2922.22   2
  -4  -2   4 124414. 2461.40   4
   4   2   5 81293.3 2235.96   4
   4  -2   5 80945.2 2809.02   1
   4  -2   5 78652.1 2139.93   3
  -4   2   5 76311.2 2237.00   2
  -4   2   5 84961.7 2956.67   3
   4   2   5 78493.1 2306.04   1
   4  -2   5 82993.7 2929.99   2
  -4   2   5 82982.9 2739.20   4
   4   2   5 82936.9 2464.15   2
  -4  -2   5 79860.3 2235.08   4
   4  -2   6 37872.3 1993.65   1
   4  -2   6 36765.0 1523.56   3
  -4   2   6 43135.8 2235.08   3
   4   2   6 34868.2 1661.70   2
   4   2   6 37238.1 1604.88   1
  -4  -2   6 37586.8 2025.03   1
   4  -2   6 37833.6 2113.10   2
  -4   2   6 36211.5 1576.18   2
   4   2   6 38076.9 1715.90   4
  -4  -2   6 35954.1 1675.99   4
   4   2   7 6993.89 839.083   4
  -4  -2   7 6589.42 814.347   4
   4  -2   7 6070.39 909.347   1
   4  -2   7 6567.45 977.176   2
   4   2   7 6257.46 350.690   3
   4  -2   7 6747.85 720.937   3
  -4   2   7 6003.03 703.876   2
   4   2   7 7679.81 776.126   1
  -4   2   7 5992.86 943.074   3
  -4  -2   7 7073.35 958.527   1
   4   2   7 7033.57 830.182   2
   4  -2   8 53768.1 2537.40   1
   4  -2   8 53020.0 1999.13   3
   4   2   8 50403.2 1197.09   3
   4   2   8 53071.4 1929.81   1
  -4   2   8 53859.7 2758.40   3
  -4  -2   8 55850.9 2600.43   1
  -4   2   8 53846.3 2043.05   2
   4  -2   8 54922.2 2740.80   2
   4   2   8 50398.9 2127.87   2
   4  -2   9 53782.6 2618.82   1
   4   2   9 55150.3 1964.72   1
   4  -2   9 53010.9 2090.13   3
   4   2   9 52305.6 1419.48   3
  -4   2   9 49954.1 2782.68   3
  -4  -2   9 55769.4 2697.20   1
   4  -2   9 52062.7 2791.67   2
   4   2   9 54884.1 2309.83   2
  -4   2   9 51878.4 2085.85   2
   4   2  10 47253.8 1797.26   1
   4   2  10 51893.5 2352.35   2
  -4   2  10 53123.3 3009.29   3
   4  -2  10 46705.5 2748.63   2
   4  -2  10 47492.0 2549.33   1
  -4   2  11 15962.6 1792.23   3
   4   2  11 19182.7 1504.55   2
   4  -2  11 17858.5 1812.27   2
   4  -2  11 17069.0 1606.35   1
  -4   2  12 64879.4 3630.41   3
   4  -2  12 61604.1 3424.60   2
   4   2  12 67343.8 2850.13   2
   4  -2  12 59002.9 3049.08   1
  -4   2  13 37221.7 2903.29   3
   4  -2  13 34581.5 2682.86   2
   4  -2  13 33099.6 2388.32   1
   4  -2  14 33542.2 2710.43   2
   4   3 -13 3365.92 914.482   4
  -4   3 -13 1923.19 833.600   4
   4   3 -12 2399.19 795.398   4
  -4   3 -12 4391.73 1128.12   4
   4   3 -11 1760.59 661.862   4
  -4   3 -11 682.323 541.670   4
   4   3 -10 7384.65 1111.41   4
  -4   3 -10 8801.79 1260.40   4
  -4   3  -9 17849.9 1665.95   4
   4  -3  -9 17687.5 1010.19   1
   4   3  -9 17027.0 1540.42   4
  -4  -3  -8 6472.12 773.230   2
   4   3  -8 5991.69 910.525   4
   4  -3  -8 5375.53 605.757   1
  -4   3  -8 6263.56 1000.19   4
   4  -3  -8 5376.45 640.116   1
   4   3  -7 2024.50 578.913   4
  -4   3  -7 3180.95 754.315   4
  -4  -3  -7 1971.00 487.055   2
   4  -3  -7 1916.46 441.548   1
   4  -3  -7 1948.18 437.486   1
   4   3  -6 1840.05 513.748   4
  -4   3  -6 1960.18 604.498   4
  -4  -3  -6 1364.93 419.665   2
   4  -3  -6 1947.98 440.526   1
   4  -3  -5 13943.1 959.871   2
  -4   3  -5 14614.0 1093.95   3
  -4  -3  -5 15553.9 717.952   3
   4  -3  -5 16647.9 1068.86   1
  -4  -3  -5 14716.8 1108.57   2
   4   3  -5 13765.7 1008.25   4
  -4   3  -5 16374.4 1379.67   4
  -4   3  -4 19067.9 1238.47   3
  -4  -3  -4 19398.2 855.869   3
   4  -3  -4 19569.3 1183.34   1
  -4  -3  -4 20610.4 1285.40   2
   4   3  -4 19899.2 1079.36   4
  -4   3  -4 19391.7 1437.16   4
   4  -3  -4 18956.1 1111.03   2
  -4   3  -3 55290.3 2061.28   3
  -4  -3  -3 49976.7 1502.22   3
   4   3  -3 53121.8 1517.84   4
   4  -3  -3 49526.8 2169.88   3
   4  -3  -3 50727.6 1903.22   1
   4  -3  -3 50288.6 1786.37   2
  -4   3  -3 52199.1 2267.81   1
  -4   3  -3 51420.4 2213.66   2
   4   3  -3 48655.9 2201.16   1
  -4  -3  -3 48169.3 1934.29   2
  -4   3  -2 37414.2 1724.63   3
  -4  -3  -2 35169.3 1335.13   3
   4  -3  -2 35307.3 1638.00   1
   4  -3  -2 34623.4 1773.99   3
   4  -3  -2 32728.4 1482.22   2
   4   3  -2 37255.9 1092.40   4
  -4   3  -2 34025.1 1788.70   1
   4   3  -2 36114.5 1855.65   1
  -4   3  -2 34545.3 1798.34   2
  -4  -3  -2 37653.5 1739.27   2
  -4   3  -1 1368.32 378.434   2
   4  -3  -1 1121.56 375.220   2
  -4  -3  -1 1154.20 393.863   2
  -4   3  -1 2435.80 502.061   1
  -4  -3  -1 1613.19 375.780   3
  -4   3  -1 2552.68 556.420   3
   4   3  -1 2077.63 252.891   4
   4  -3  -1 1691.19 447.725   3
   4   3  -1 1778.32 463.863   1
   4  -3  -1 3519.80 588.338   1
  -4   3   0 3096.86 541.505   2
  -4   3   0 3455.48 589.215   1
   4  -3   0 3771.91 628.381   2
  -4  -3   0 3307.56 560.452   2
  -4  -3   0 3658.60 521.290   3
  -4   3   0 3458.28 626.364   3
   4  -3   0 3473.48 571.428   3
   4  -3   0 3021.41 549.461   1
   4   3   0 3391.08 600.392   1
   4   3   0 3780.75 281.261   4
  -4   3   1 1797.38 420.177   2
   4  -3   1 1150.66 437.000   2
  -4  -3   1 1499.51 398.176   3
  -4  -3   1 2226.52 528.732   2
   4   3   1 1769.69 206.436   4
   4   3   1 963.002 406.292   2
  -4   3   1 1764.01 532.072   3
   4  -3   1 2103.05 477.683   3
   4  -3   1 1742.60 476.065   1
  -4   3   1 2176.45 474.559   1
   4   3   1 1628.52 410.179   1
  -4  -3   2 35795.0 1843.70   2
   4  -3   2 36159.7 1832.94   1
   4   3   2 35377.7 1650.34   2
  -4   3   2 36696.0 1875.10   3
   4  -3   2 37176.1 1713.69   3
   4   3   2 36020.3 1665.46   1
  -4   3   2 34455.8 1523.26   2
   4  -3   2 38968.1 1890.86   2
   4   3   2 36698.1 1044.11   4
   4   3   3 52807.5 1955.64   2
  -4  -3   3 48835.0 2245.09   2
   4  -3   3 49560.4 2201.48   1
   4  -3   3 49391.5 1965.18   3
  -4   3   3 47120.9 2180.83   3
   4   3   3 51368.2 1448.33   4
  -4  -3   3 52087.2 2287.65   1
   4   3   3 48689.6 1902.06   1
   4  -3   3 47664.1 2195.04   2
  -4   3   3 48205.5 1741.51   2
   4   3   4 18462.7 1174.84   2
   4  -3   4 17231.4 1379.30   1
   4  -3   4 17965.5 1223.35   3
  -4   3   4 18035.0 1436.21   3
  -4  -3   4 19390.8 1470.21   1
   4   3   4 19017.2 1181.75   1
   4  -3   4 15671.6 1343.93   2
  -4   3   4 17590.8 1055.69   2
   4   3   4 17714.5 988.128   4
   4  -3   5 16629.7 1401.01   1
   4   3   5 14899.1 708.792   3
   4  -3   5 13336.5 1074.05   3
  -4   3   5 15011.7 1362.17   3
   4   3   5 16169.0 1108.73   2
  -4  -3   5 16482.5 1422.96   1
   4   3   5 13987.1 1004.64   1
   4  -3   5 15848.6 1402.34   2
  -4   3   5 15613.6 988.709   2
   4   3   5 15621.0 1055.21   4
   4  -3   6 995.668 527.501   1
   4   3   6 915.947 385.473   4
  -4  -3   6 2083.52 498.242   4
  -4   3   6 1476.11 352.405   2
   4   3   6 2248.09 470.046   2
   4   3   6 1235.64 254.774   3
   4   3   6 1219.21 359.031   1
   4  -3   6 1889.14 521.489   3
   4  -3   6 2116.98 717.187   2
  -4   3   6 2375.24 715.511   3
   4   3   6 1213.27 344.293   1
  -4  -3   6 1198.12 519.295   1
   4   3   7 2399.26 540.509   4
  -4  -3   7 2009.07 532.398   4
   4  -3   7 1809.42 725.323   2
  -4   3   7 1523.43 376.196   2
   4  -3   7 1868.07 624.239   1
   4   3   7 1974.33 458.782   2
   4   3   7 2149.09 323.703   3
   4  -3   7 1992.62 506.957   3
  -4   3   7 1367.25 582.230   3
   4   3   7 2126.87 436.386   1
   4   3   7 1814.26 392.766   1
  -4  -3   7 2771.80 746.327   1
   4  -3   8 6594.35 1058.27   2
   4   3   8 5786.00 510.732   3
  -4   3   8 5063.77 595.971   2
   4   3   8 4245.71 650.143   2
   4  -3   8 5244.37 786.911   3
   4  -3   8 4598.27 906.325   1
  -4   3   8 5813.01 1061.49   3
   4   3   8 5298.64 591.460   1
  -4  -3   8 4821.01 906.112   1
   4   3   8 4328.91 563.733   1
   4  -3   9 16935.6 1616.98   1
   4   3   9 18335.9 1054.59   1
   4   3   9 16921.4 892.270   3
  -4   3   9 18176.4 1799.78   3
  -4  -3   9 15165.2 1576.36   1
   4  -3   9 17251.5 1716.43   2
   4   3   9 18049.9 1266.98   2
   4  -3  10 6942.79 1168.34   2
   4   3  10 6630.09 829.551   2
  -4   3  10 6498.34 1191.78   3
   4  -3  10 6928.08 1098.15   1
  -4  -3  10 7289.61 1112.00   1
   4  -3  11 1357.62 677.303   2
   4  -3  11 1420.46 602.531   1
  -4   3  11 889.011 635.280   3
  -4  -3  11 1508.99 602.422   1
   4  -3  12 4727.56 1104.97   2
   4  -3  12 4229.27 1052.85   1
  -4   3  12 2675.41 958.430   3
  -4  -3  12 3823.14 964.626   1
   4  -3  13 2218.34 752.740   2
   4  -3  13 2550.66 824.994   1
  -4  -3  13 2801.64 887.397   1
  -4   3  13 2362.53 831.952   3
   4   4 -13 10143.1 1524.74   4
   4   4 -12 11228.1 1547.40   4
  -4   4 -12 9715.45 1597.45   4
   4   4 -11 8904.76 1344.60   4
  -4   4 -11 10786.3 1633.04   4
  -4   4 -10 64543.1 3465.38   4
   4   4 -10 58654.2 3057.38   4
   4   4  -9 72272.8 3164.04   4
  -4   4  -9 80804.0 3677.26   4
   4  -4  -8 90970.2 2246.58   1
   4   4  -8 91487.2 3324.59   4
  -4  -4  -8 88959.9 2661.04   2
  -4   4  -8 91642.9 3778.26   4
   4  -4  -7 40743.9 1604.06   1
  -4   4  -7 41249.6 2455.73   4
  -4  -4  -7 39962.2 1788.00   2
   4   4  -7 40463.7 2099.34   4
   4  -4  -6 113146. 2753.36   1
  -4  -4  -6 115051. 2508.49   3
  -4  -4  -6 113446. 2990.05   2
   4   4  -6 111104. 3185.89   4
  -4   4  -6 112429. 3874.05   4
   4  -4  -5 135631. 2826.43   2
  -4   4  -5 136240. 3709.82   3
   4  -4  -5 130454. 3053.61   1
  -4  -4  -5 130641. 2755.88   3
  -4  -4  -5 132593. 3261.11   2
   4   4  -5 135257. 3230.70   4
  -4   4  -5 134953. 4100.72   4
  -4   4  -4 170460. 4098.70   3
   4  -4  -4 172851. 3577.43   1
  -4  -4  -4 173975. 3296.33   3
  -4  -4  -4 174540. 3765.07   2
   4   4  -4 174330. 3370.44   4
   4  -4  -4 177619. 3299.59   2
   4  -4  -3 89332.4 2658.39   1
  -4  -4  -3 81755.3 2373.08   3
   4  -4  -3 81356.7 2334.74   2
  -4  -4  -3 80628.3 2594.36   2
   4   4  -3 83207.1 2138.94   4
  -4   4  -3 83404.7 2886.79   3
   4  -4  -2 164492. 3457.16   2
  -4   4  -2 169834. 4122.37   3
   4  -4  -2 168092. 3734.73   1
  -4  -4  -2 167885. 3475.14   3
  -4  -4  -2 172684. 3834.65   2
   4   4  -2 172899. 2807.40   4
  -4  -4  -1 54024.8 2042.13   3
   4  -4  -1 54714.8 2190.06   1
  -4   4  -1 55705.2 2381.19   3
   4  -4  -1 55177.3 2411.68   3
  -4   4  -1 55649.9 2262.94   2
   4  -4  -1 56154.6 2106.43   2
  -4  -4  -1 55512.9 2253.73   2
   4   4  -1 54737.9 1501.36   4
   4  -4   0 23195.3 1486.64   1
  -4  -4   0 23310.5 1399.75   3
  -4   4   0 20831.0 1513.58   3
   4  -4   0 22656.5 1537.55   3
  -4   4   0 24392.1 1553.54   1
  -4  -4   0 22699.1 1492.91   2
  -4   4   0 21383.4 1375.52   2
   4   4   0 23134.6 1512.15   1
   4  -4   0 21268.7 1375.19   2
  -4  -4   1 61576.4 2500.60   2
   4  -4   1 62525.4 2483.36   1
  -4  -4   1 58351.8 2294.16   3
  -4   4   1 60186.7 2563.02   3
   4  -4   1 60042.2 2465.91   3
  -4  -4   1 58188.1 2443.70   1
  -4   4   1 61740.2 2386.52   1
   4   4   1 58635.5 2310.27   1
  -4   4   1 60765.4 2180.04   2
   4  -4   1 59271.9 2355.73   2
  -4  -4   2 160495. 3954.94   3
   4  -4   2 162732. 4099.73   1
  -4   4   2 162611. 4306.85   3
   4  -4   2 161195. 4001.92   3
  -4  -4   2 157731. 4128.76   1
  -4   4   2 155596. 3716.65   1
   4   4   2 147007. 3578.11   1
  -4   4   2 154858. 3344.09   2
   4  -4   2 154275. 3937.95   2
   4   4   2 158515. 2635.23   4
  -4   4   3 88371.0 3258.12   3
   4   4   3 83054.3 2525.96   2
   4  -4   3 87169.4 3142.56   1
   4  -4   3 81940.8 2899.05   3
  -4  -4   3 80865.5 3069.13   1
   4   4   3 84036.4 2625.11   1
  -4   4   3 83224.0 2343.07   2
   4  -4   3 84667.7 3025.37   2
   4   4   3 83695.7 2097.75   4
   4   4   4 177354. 3623.64   2
   4   4   4 170000. 3260.77   4
   4  -4   4 179474. 4578.03   1
   4   4   4 175248. 3121.75   3
   4  -4   4 167881. 4168.03   3
  -4   4   4 180375. 4754.86   3
  -4  -4   4 175489. 4614.25   1
   4   4   4 171693. 3634.41   1
  -4   4   4 171761. 3217.43   2
   4  -4   4 173376. 4530.66   2
   4  -4   5 123395. 3628.99   3
   4   4   5 126773. 3032.94   2
   4  -4   5 124597. 3957.22   1
   4   4   5 123455. 2578.51   3
  -4   4   5 130583. 4161.79   3
  -4  -4   5 123433. 3989.32   1
   4   4   5 121527. 2993.40   1
  -4   4   5 125013. 2659.88   2
   4  -4   5 124228. 4009.35   2
   4   4   5 122287. 3035.91   4
   4   4   6 109426. 2828.87   2
   4  -4   6 108863. 3836.04   1
  -4   4   6 118510. 4113.74   3
   4   4   6 109538. 2424.40   3
   4  -4   6 106635. 3437.37   3
  -4  -4   6 114890. 3984.89   1
   4   4   6 107046. 2709.20   1
   4  -4   6 109963. 3917.49   2
  -4   4   6 111156. 2423.98   2
   4   4   6 105672. 3073.09   4
   4  -4   7 43887.5 2560.05   1
   4   4   7 44990.6 1571.11   3
  -4   4   7 46676.3 2696.64   3
   4   4   7 43494.8 1803.59   2
   4   4   7 43110.4 1692.98   1
  -4  -4   7 44352.9 2597.67   1
   4   4   7 43461.3 1659.03   1
   4  -4   7 43616.8 2635.38   2
  -4   4   7 44021.3 1465.78   2
   4   4   8 86231.0 2532.34   2
   4  -4   8 89031.4 3684.45   1
   4   4   8 88325.2 2244.52   3
  -4   4   8 85234.3 3759.30   3
   4   4   8 87383.0 2262.19   1
  -4  -4   8 91933.1 3763.63   1
   4  -4   8 89456.6 3836.90   2
  -4   4   9 74738.1 3684.86   3
  -4  -4   9 74625.4 3538.42   1
   4  -4   9 72278.4 3598.00   2
   4   4   9 71631.2 2308.91   2
   4  -4   9 68532.5 3402.86   1
  -4   4  10 58723.0 3401.60   3
  -4  -4  10 60474.0 3271.44   1
   4  -4  10 62861.1 3494.29   2
   4  -4  10 59400.6 3264.38   1
   4  -4  11 10650.5 1548.86   2
   4  -4  11 9615.76 1372.02   1
  -4   4  11 9207.43 1494.82   3
  -4  -4  11 8348.23 1309.88   1
   4  -4  12 11041.0 1680.57   2
   4  -4  12 11923.3 1624.99   1
  -4   4  12 13737.1 1845.19   3
  -4  -4  12 9439.30 1481.47   1
   4  -4  13 10113.2 1546.14   1
  -4  -4  13 9086.88 1494.51   1
   4   5 -12 127.110 398.210   4
   4   5 -11 528.555 625.113   4
  -4   5 -11 161.785 743.091   4
   4   5 -10 828.114 680.604   4
  -4   5 -10 848.448 680.622   4
   4   5  -9 3576.94 824.079   4
  -4   5  -9 2836.69 884.142   4
  -4   5  -8 10566.4 1411.71   4
   4   5  -8 11428.3 1253.63   4
   4   5  -7 3970.95 778.917   4
  -4   5  -7 4821.29 1000.25   4
   4  -5  -7 5099.88 593.975   1
   4   5  -6 1469.61 531.841   4
   4  -5  -6 1007.70 371.338   1
  -4   5  -6 1207.44 628.509   4
  -4  -5  -6 1544.14 396.852   2
  -4  -5  -6 1339.43 374.301   3
   4   5  -5 6656.00 826.133   4
   4  -5  -5 6275.32 641.090   2
   4  -5  -5 8225.15 843.059   1
  -4   5  -5 7924.34 1210.76   4
  -4   5  -5 7548.71 1051.15   3
  -4  -5  -5 5699.91 728.693   3
  -4  -5  -5 7523.39 821.225   2
   4  -5  -4 15370.9 1168.63   1
  -4   5  -4 15434.3 1444.12   3
  -4  -5  -4 14905.7 1191.23   3
  -4  -5  -4 13770.4 1123.22   2
   4   5  -4 14034.3 1087.24   4
   4  -5  -4 14110.1 978.545   2
   4   5  -3 2358.12 488.321   4
   4  -5  -3 2345.89 557.073   1
   4  -5  -3 1251.06 421.257   2
  -4  -5  -3 1716.54 442.984   2
  -4   5  -3 2274.98 688.341   3
  -4  -5  -3 1710.49 472.971   3
   4  -5  -2 8241.93 949.088   1
  -4  -5  -2 6941.12 822.172   2
  -4   5  -2 7347.88 1019.54   3
  -4  -5  -2 7352.65 885.606   3
   4  -5  -2 8003.04 845.794   2
   4   5  -2 8301.23 772.644   4
   4  -5  -1 7156.65 930.007   1
   4   5  -1 5436.50 620.498   4
   4  -5  -1 5420.43 761.145   2
  -4  -5  -1 6674.73 859.708   2
  -4   5  -1 5948.44 968.191   3
  -4  -5  -1 6726.32 863.742   3
   4  -5   0 19333.9 1463.51   1
  -4  -5   0 19421.3 1461.13   3
  -4   5   0 20496.4 1650.22   3
  -4  -5   0 20867.3 1558.05   1
   4  -5   0 19227.6 1385.21   2
   4  -5   1 5290.70 863.406   1
   4  -5   1 6006.38 878.043   2
  -4   5   1 6714.61 1058.71   3
  -4  -5   1 5251.37 861.689   1
   4  -5   2 10098.6 1178.45   1
   4  -5   2 5910.68 928.806   2
  -4   5   2 7951.16 1133.03   3
  -4  -5   2 8330.75 1073.77   1
   4   5   2 7545.54 922.689   1
  -4   5   2 6995.59 883.394   1
   4   5   3 2726.94 562.221   1
   4   5   3 2274.69 535.566   3
   4  -5   3 3032.66 793.555   2
   4   5   3 1530.03 377.497   4
  -4   5   3 2694.64 785.392   3
  -4   5   3 1890.55 408.931   2
  -4  -5   3 3114.12 726.838   1
   4  -5   3 3623.79 813.022   1
  -4   5   3 2622.93 535.613   1
   4  -5   4 14846.6 1456.38   1
   4   5   4 13774.5 1067.32   3
  -4   5   4 16628.5 1614.01   3
  -4  -5   4 16047.0 1540.45   1
  -4   5   4 14781.4 981.700   2
   4   5   4 14991.1 1173.32   1
   4  -5   4 16023.9 1509.33   2
   4   5   4 13223.4 1033.39   4
   4   5   5 6653.27 773.708   1
   4   5   5 6873.37 772.997   3
   4  -5   5 7007.93 1099.31   2
  -4   5   5 6529.94 1057.10   3
  -4   5   5 6660.20 621.660   2
  -4  -5   5 6961.00 1060.21   1
   4  -5   5 7068.94 1069.31   1
   4   5   5 7735.78 845.867   4
   4   5   6 2539.13 612.758   4
   4   5   6 1331.11 319.064   1
   4  -5   6 1311.55 686.510   2
   4   5   6 1006.49 407.589   3
  -4   5   6 2491.06 851.742   3
  -4  -5   6 1675.33 742.701   1
   4  -5   6 2480.96 777.099   1
   4  -5   7 4522.42 982.022   2
   4   5   7 4705.82 637.338   3
  -4   5   7 3993.07 975.991   3
   4  -5   7 5141.10 1012.40   1
  -4  -5   7 5814.27 1097.95   1
   4  -5   8 11097.2 1493.34   2
   4   5   8 8567.29 882.289   3
  -4   5   8 10925.2 1483.84   3
   4  -5   8 9514.90 1375.82   1
  -4  -5   8 7933.23 1278.67   1
   4  -5   9 3080.21 936.754   2
  -4   5   9 2960.43 876.136   3
   4  -5   9 1527.11 706.931   1
  -4  -5   9 2214.49 847.833   1
   4  -5  10 2169.54 979.320   2
   4  -5  10 696.042 690.358   1
  -4   5  10 1504.13 668.483   3
  -4  -5  10 2864.19 947.489   1
   4  -5  11-115.377 488.380   2
  -4   5  11 557.013 662.945   3
  -4  -5  11-117.031 552.653   1
   4  -5  12 146.313 771.494   1
  -4  -5  12 1934.32 879.504   1
   4   6 -12 18726.6 2045.64   4
   4   6 -11 10198.2 1505.10   4
  -4   6 -10 31526.2 2722.43   4
   4   6 -10 30814.2 2370.40   4
   4   6  -9 32521.3 2338.95   4
  -4   6  -9 35717.1 2835.93   4
   4   6  -8 32724.0 2195.40   4
  -4   6  -8 36815.8 2782.74   4
   4   6  -7 21688.3 1711.04   4
  -4   6  -7 20711.3 2048.56   4
   4  -6  -6 84676.4 2607.55   1
   4   6  -6 83563.8 3105.67   4
  -4   6  -6 88024.1 4000.01   4
   4  -6  -5 59897.9 2320.43   1
  -4   6  -5 60161.7 3073.14   3
  -4   6  -5 64305.1 3368.20   4
   4   6  -5 62108.0 2566.85   4
   4  -6  -5 60968.4 1824.64   2
   4  -6  -4 43378.6 2066.79   1
  -4   6  -4 45075.1 2615.78   3
  -4  -6  -4 41095.0 1969.06   2
   4  -6  -4 43854.8 1735.74   2
   4   6  -4 42017.2 2043.98   4
  -4   6  -3 31257.4 2171.51   3
   4  -6  -3 27139.4 1701.01   1
   4  -6  -3 26499.2 1474.13   2
  -4  -6  -3 28815.4 1728.66   2
   4   6  -3 30230.2 1678.22   4
   4  -6  -2 80785.9 2980.22   1
  -4   6  -2 82442.7 3472.38   3
   4   6  -2 83231.6 2625.43   4
   4  -6  -2 80549.5 2693.71   2
   4  -6  -1 46672.4 2358.04   1
  -4   6  -1 49066.8 2704.20   3
  -4  -6  -1 52938.7 2532.24   1
   4  -6  -1 47284.7 2191.02   2
   4  -6   0 52796.9 2553.56   1
  -4   6   0 54415.6 2852.17   3
  -4  -6   0 57183.6 2693.04   1
   4  -6   0 56590.5 2499.39   2
   4  -6   1 48728.3 2537.96   1
  -4   6   1 50864.2 2792.14   3
  -4  -6   1 48523.6 2566.42   1
   4  -6   1 48536.6 2406.30   2
   4  -6   2 77341.1 3286.20   1
  -4   6   2 79874.1 3539.29   3
  -4  -6   2 78083.4 3330.97   1
   4  -6   2 76003.7 3125.62   2
   4  -6   3 31646.3 2175.28   1
   4   6   3 34209.0 1901.12   3
  -4   6   3 34988.6 2431.34   3
  -4  -6   3 34871.1 2320.86   1
   4  -6   3 32300.0 2147.18   2
   4   6   3 32691.9 1674.32   4
   4   6   4 36440.7 1939.16   3
  -4   6   4 39173.1 2603.66   3
  -4  -6   4 35251.5 2416.48   1
   4  -6   4 36687.9 2379.44   2
   4   6   4 39864.0 2039.82   1
   4   6   4 40986.4 1953.79   4
   4  -6   4 41741.0 2557.57   1
   4   6   5 65003.1 2554.43   3
  -4   6   5 66021.6 3444.23   3
  -4  -6   5 61204.2 3209.85   1
   4  -6   5 64014.0 3239.20   2
   4  -6   5 64280.8 3261.28   1
   4   6   6 83494.0 2857.11   3
  -4   6   6 89373.5 4061.58   3
  -4  -6   6 82530.9 3853.60   1
   4  -6   6 82488.8 3808.76   2
   4  -6   6 84042.2 3840.27   1
   4   6   7 21727.0 1501.84   3
  -4   6   7 21154.6 2108.04   3
  -4  -6   7 22738.5 2142.82   1
   4  -6   7 24306.6 2199.46   2
   4  -6   7 22892.9 2146.35   1
  -4   6   8 40462.9 2948.90   3
   4  -6   8 40263.3 2880.75   1
  -4  -6   8 41468.1 2917.05   1
   4  -6   8 39288.0 2868.16   2
  -4   6   9 31800.9 2700.65   3
  -4  -6   9 32639.7 2695.13   1
   4  -6   9 30710.7 2635.48   2
   4  -6   9 31152.4 2622.34   1
  -4   6  10 29565.6 2677.10   3
  -4  -6  10 34056.8 2801.11   1
   4  -6  10 28098.3 2608.58   2
   4  -6  10 27706.7 2574.45   1
   4   7 -10 815.040 527.080   4
   4   7  -9-2049.57 841.566   4
   4   7  -8 1739.53 743.292   4
  -4   7  -8-149.561 763.276   4
   4   7  -7 1811.72 623.369   4
  -4   7  -7 1179.40 720.813   4
   4   7  -6 4545.26 887.202   4
  -4   7  -6 2852.51 1085.13   4
   4   7  -5 260.209 403.832   4
  -4   7  -5 423.797 675.321   4
  -4   7  -5 382.908 616.797   3
   4  -7  -5 672.310 399.771   1
   4   7  -4 1207.19 503.247   4
  -4   7  -4 1635.29 795.712   3
   4  -7  -4 581.647 383.809   1
   4   7  -3 13.7069 478.949   4
   4  -7  -3-32.5531 358.243   2
  -4   7  -3 1186.67 706.546   3
   4  -7  -3 259.086 402.585   1
   4   7  -2 1075.33 496.566   4
   4  -7  -2 219.364 376.988   2
  -4   7  -2 817.241 678.194   3
   4  -7  -2 478.523 381.862   1
   4  -7  -1 576.584 475.549   2
  -4   7  -1 1201.81 610.242   3
  -4  -7  -1 1883.65 638.891   1
   4  -7  -1 291.087 518.340   1
   4  -7   0 5235.58 944.127   2
  -4   7   0 5023.78 1059.13   3
  -4  -7   0 6625.93 1047.72   1
   4  -7   0 6858.94 1073.06   1
   4  -7   1 1774.86 701.059   2
  -4   7   1 2557.17 860.841   3
   4  -7   1 1289.17 613.560   1
  -4  -7   1 1574.01 638.767   1
   4  -7   2-297.195 596.031   2
  -4   7   2 1798.17 829.376   3
   4  -7   2 940.883 663.212   1
  -4  -7   2-232.706 585.336   1
   4   7   3 161.080 458.091   3
   4  -7   3-229.828 572.791   2
  -4   7   3-107.702 695.478   3
   4  -7   3 711.076 625.095   1
  -4  -7   3 1061.60 589.611   1
   4  -7   4 456.349 472.041   2
   4   7   4 139.835 519.582   3
  -4   7   4 997.659 680.167   3
   4  -7   4 1060.70 597.218   1
  -4  -7   4 519.328 608.395   1
   4  -7   5 92.3160 545.003   2
   4   7   5 426.904 439.882   3
  -4   7   5-372.090 705.429   3
   4  -7   5-851.756 619.770   1
   4  -7   6 5414.23 1080.54   2
   4   7   6 3907.92 799.970   3
  -4   7   6 3934.34 996.407   3
   4  -7   6 4135.16 1047.08   1
  -4  -7   6 4823.32 1181.50   1
   4  -7   7 1331.29 711.794   2
  -4   7   7 995.164 650.438   3
   4  -7   7 3498.42 979.476   1
  -4  -7   7 1625.89 831.497   1
   4  -7   8 1123.43 625.769   2
   4  -7   8 647.878 585.640   1
  -4   7   8 1793.95 960.947   3
  -4  -7   8 1250.57 807.683   1
   4   8  -6 58528.3 3023.80   4
  -4   8  -6 53444.3 3630.76   4
  -4   8  -5 30768.5 2613.96   3
   4   8  -5 27517.1 2020.43   4
  -4   8  -5 24755.5 2515.41   4
  -4   8  -4 18307.9 2036.09   3
   4  -8  -4 19447.9 1643.35   1
   4   8  -4 22101.9 1763.04   4
   4   8  -3 9460.98 1166.49   4
  -4   8  -3 11772.4 1640.65   3
   4  -8  -3 8772.23 1191.73   1
  -4   8  -2 40729.6 2877.65   3
   4  -8  -2 35932.3 2372.34   1
   4  -8  -2 34529.5 1971.41   2
   4   8  -2 36511.5 2166.64   4
  -4   8  -1 15517.3 1869.86   3
  -4  -8  -1 13729.8 1550.79   1
   4  -8  -1 13116.8 1322.48   2
   4  -8  -1 14926.4 1587.78   1
  -4   8   0 27192.6 2404.77   3
   4  -8   0 24664.5 2073.05   1
  -4  -8   0 28503.1 2241.87   1
   4  -8   0 26594.9 1964.06   2
  -4   8   1 15436.4 1849.69   3
  -4  -8   1 15882.0 1772.73   1
   4  -8   1 15726.0 1574.37   2
   4  -8   1 13688.1 1638.50   1
  -4   8   2 40698.7 2939.03   3
  -4  -8   2 35157.2 2585.19   1
   4  -8   2 37303.5 2655.44   1
   4  -8   2 37292.7 2527.40   2
   4  -8   3 8060.16 1318.02   2
  -4   8   3 9766.02 1556.91   3
   4  -8   3 5734.29 1132.00   1
  -4  -8   3 7975.18 1340.12   1
   4   8   4 22980.6 1910.49   3
  -4   8   4 23501.6 2309.40   3
  -4  -8   4 19295.4 2078.39   1
   4  -8   4 20132.8 2014.91   2
   4  -8   4 21076.8 2115.42   1
   4   8   5 26582.8 2028.86   3
  -4   8   5 26635.9 2584.03   3
  -4  -8   5 29430.5 2558.30   1
   4  -8   5 25935.8 2388.13   2
   4  -8   5 30767.3 2590.01   1
  -4   8   6 54810.3 3644.03   3
  -4  -8   6 57698.2 3663.84   1
   4  -8   6 58559.7 3582.02   2
   4  -8   6 53276.5 3495.80   1
   4  -8   7 12156.7 1785.56   2
   4  -9  -3 2448.89 604.883   1
  -4   9  -3 3280.34 1084.08   3
   4  -9  -2 966.147 583.004   1
  -4   9  -2 883.082 839.976   3
  -4   9  -1 1237.12 741.264   3
   4  -9  -1 1460.71 541.006   1
  -4  -9  -1 656.036 659.888   1
  -4   9   0 1375.84 846.961   3
   4  -9   0 3216.65 908.710   1
  -4  -9   0 2272.86 930.991   1
   4  -9   1 1491.79 760.861   2
  -4   9   1 540.352 704.853   3
  -4  -9   1 481.607 593.309   1
   4  -9   2 2204.58 771.122   2
   4  -9   2 2163.10 838.349   1
  -4  -9   2 1843.63 848.664   1
   4  -9   3 908.611 721.827   2
   4  -9   3 3102.28 942.080   1
  -4  -9   3 1460.07 747.132   1
   4  -9   4 2654.49 992.284   2
   4  -9   5 1672.79 696.525   2
   4 -10  -1 11569.1 1594.06   1
  -4 -10  -1 16807.3 1858.77   1
   4 -10   0 15445.1 1885.29   1
  -4 -10   0 14043.1 1810.59   1
  -5   0 -13 380.906 703.014   4
  -5   0 -12-563.613 811.519   4
  -5   0 -11 194.985 566.857   4
  -5   0 -10 48.1636 519.693   4
  -5   0  -9 101.294 423.956   4
  -5   0  -8 7.86784 429.965   4
  -5   0  -7 146.490 350.503   4
  -5   0  -6 62.7889 298.221   4
   5   0  -6 298.251 340.257   1
  -5   0  -5 140.019 287.275   4
   5   0  -5-271.380 389.282   1
  -5   0  -4-85.3178 249.517   4
  -5   0  -4-113.362 299.846   2
   5   0  -4 18.7027 394.589   2
   5   0  -4 260.057 304.491   1
  -5   0  -3 73.1272 222.959   4
  -5   0  -3 100.299 315.224   2
  -5   0  -3 157.321 89.1506   3
   5   0  -3 329.206 370.006   2
  -5   0  -2 2.73867 163.814   4
  -5   0  -2-174.176 319.639   2
   5   0  -2-256.808 369.051   2
  -5   0  -2-347.549 172.814   3
  -5   0  -1 63.5535 179.350   4
  -5   0  -1-158.968 334.247   2
   5   0  -1 164.402 373.451   2
  -5   0  -1-40.2564 173.913   3
  -5   0   0-55.7122 331.622   2
   5   0   0 227.486 327.993   2
  -5   0   0 24.6358 213.617   3
  -5   0   1 136.127 317.123   2
   5   0   1 122.950 284.297   2
  -5   0   1-174.644 288.361   3
  -5   0   2-173.388 179.306   4
  -5   0   2 470.929 293.720   2
   5   0   2 449.447 375.158   2
  -5   0   2 107.818 309.775   3
  -5   0   3-8.67796 195.114   4
   5   0   3 322.564 317.080   1
   5   0   3 417.271 399.340   2
  -5   0   3 407.165 371.581   2
  -5   0   3-201.812 414.023   3
  -5   0   4 315.101 215.277   4
   5   0   4-206.799 379.023   2
  -5   0   4-81.2320 328.433   2
   5   0   4 56.3569 297.949   1
  -5   0   5 805.335 321.952   4
   5   0   5 11.2380 336.239   2
   5   0   5 196.684 361.156   1
  -5   0   5-217.854 429.948   2
  -5   0   6-286.678 307.725   4
   5   0   6-146.782 428.317   2
   5   0   6 32.4299 344.748   1
   5   0   7 191.253 369.046   4
   5   0   7-279.249 423.672   2
   5   0   7-180.251 449.722   1
   5   0   8-4.65866 489.867   2
   5   0   8-419.561 475.140   1
   5   0   9 118.620 358.237   1
   5   0   9-153.315 446.880   2
   5   0  10-323.311 622.760   2
  -5   0  10-47.0073 644.125   3
   5   0  10-60.4531 434.517   1
   5   0  11-166.724 492.102   2
  -5   0  11 444.515 580.575   3
   5   0  11 365.736 443.659   1
   5   0  12 468.453 480.563   2
  -5   0  12-1577.06 748.343   3
   5   0  13 348.498 504.824   2
  -5   0  13-89.2773 814.971   3
   5   0  14 98.6072 586.646   2
  -5  -1 -14 18244.8 1997.50   4
  -5  -1 -13 30384.8 2435.99   4
  -5   1 -13 25927.9 2407.86   4
  -5  -1 -12 35316.4 2482.33   4
  -5   1 -12 33857.8 2527.87   4
  -5  -1 -11 46348.2 2691.05   4
  -5   1 -11 50405.3 2911.72   4
  -5  -1 -10 17516.8 1584.32   4
   5   1 -10 17979.2 1683.73   4
  -5   1 -10 17368.9 1662.61   4
  -5  -1  -9 26472.1 1791.22   4
   5   1  -9 28526.5 1948.42   4
  -5   1  -9 24294.3 1837.17   4
  -5   1  -8 51971.1 2475.95   4
  -5  -1  -8 49803.4 2257.37   4
   5  -1  -8 50121.5 2275.82   1
   5   1  -8 47463.7 2332.26   4
   5  -1  -7 77522.0 2746.91   1
  -5  -1  -7 79323.9 2622.35   4
  -5   1  -7 83737.6 2927.51   4
   5  -1  -6 33773.2 1783.91   1
  -5  -1  -6 34963.4 1618.41   4
  -5   1  -6 34407.7 1776.48   4
   5  -1  -5 60947.3 2373.84   2
   5  -1  -5 56949.2 2262.15   1
  -5  -1  -5 59312.3 1895.06   4
  -5  -1  -5 57802.6 2440.57   2
  -5   1  -5 58700.9 2157.05   4
   5  -1  -4 174534. 3902.47   2
  -5   1  -4 174405. 2377.81   3
   5   1  -4 169592. 4079.34   1
  -5  -1  -4 173493. 4090.25   2
  -5  -1  -4 169837. 2825.70   4
  -5   1  -4 178160. 3487.32   4
   5  -1  -3 164148. 3711.50   2
  -5   1  -3 163636. 2530.11   3
   5   1  -3 165941. 3983.51   2
   5   1  -3 161665. 3873.58   1
  -5   1  -3 154297. 3895.55   2
  -5  -1  -3 159163. 3858.56   2
  -5  -1  -3 162010. 2352.57   4
  -5   1  -3 160185. 3142.53   4
   5   1  -2 53784.3 2234.45   2
  -5   1  -2 56202.7 1621.65   3
  -5  -1  -2 53373.4 1119.13   3
   5   1  -2 52485.6 2170.37   1
  -5   1  -2 54618.1 2243.93   2
  -5  -1  -2 57270.2 2298.02   2
  -5  -1  -2 54570.8 1079.74   4
   5  -1  -2 58880.5 2211.82   2
  -5   1  -2 54491.2 1744.87   4
   5   1  -1 244799. 4622.22   2
  -5   1  -1 239084. 3577.70   3
   5  -1  -1 241487. 4469.67   1
  -5   1  -1 241191. 4609.71   2
  -5  -1  -1 232508. 4522.69   2
   5  -1  -1 238461. 4428.67   2
  -5   1   0 494172. 5429.06   3
   5  -1   0 508741. 6497.06   1
  -5   1   0 492740. 6495.77   2
  -5  -1   0 499276. 6664.73   2
   5  -1   0 501492. 6447.46   2
   5   1   0 502288. 6532.56   2
   5   1   1 235467. 4447.17   2
  -5   1   1 233780. 3971.44   3
   5  -1   1 227823. 4434.57   1
  -5   1   1 230565. 4404.65   2
   5  -1   1 228053. 4448.55   2
  -5  -1   1 236474. 4613.90   2
  -5   1   2 59200.6 2135.33   3
   5  -1   2 52933.4 1492.83   3
   5  -1   2 57794.0 2290.38   1
  -5   1   2 52935.7 2127.68   2
   5  -1   2 56323.9 2278.74   2
  -5  -1   2 55020.3 1162.04   4
  -5  -1   2 51250.2 2213.10   2
   5   1   2 54544.0 2170.78   2
  -5   1   3 167503. 3777.55   3
   5   1   3 169868. 3837.24   2
   5  -1   3 164779. 2410.26   3
   5  -1   3 166559. 3929.95   1
   5   1   3 167838. 3775.43   1
  -5   1   3 160190. 3173.30   4
   5  -1   3 158890. 3933.57   2
  -5   1   3 159336. 3694.66   2
  -5  -1   3 165225. 2463.74   4
  -5  -1   3 169087. 4030.53   2
   5  -1   4 163703. 2261.51   3
   5  -1   4 161743. 3959.03   1
  -5   1   4 167957. 4018.82   3
  -5  -1   4 157070. 2799.13   4
   5   1   4 165335. 3759.76   1
   5  -1   4 165573. 4147.34   2
  -5   1   4 162010. 3377.65   4
  -5   1   4 162942. 3755.34   2
   5   1   4 159532. 3830.36   2
  -5  -1   4 160533. 4029.30   2
   5  -1   5 62226.5 2524.58   1
   5  -1   5 62694.9 1371.67   3
   5   1   5 62042.0 2034.81   4
  -5   1   5 64232.6 2639.58   3
   5   1   5 62297.0 2363.47   1
   5  -1   5 63077.1 2667.15   2
  -5   1   5 64267.1 2282.50   4
   5   1   5 64637.1 2499.37   2
  -5  -1   5 61490.2 1967.43   4
  -5   1   5 61055.3 2359.22   2
   5  -1   6 34072.8 1946.47   1
   5  -1   6 33069.5 1017.37   3
  -5   1   6 32474.0 2011.63   3
   5   1   6 29216.2 1664.60   1
   5  -1   6 32891.5 1994.37   2
  -5   1   6 34315.5 1797.87   4
   5   1   6 34720.9 1883.29   2
  -5  -1   6 33124.3 1612.64   4
  -5   1   6 32324.2 1790.10   2
   5   1   6 32278.1 1642.19   4
   5  -1   7 75407.8 2948.06   1
   5  -1   7 77011.4 1646.58   3
   5   1   7 81642.0 2784.57   1
  -5   1   7 77129.8 3217.08   3
   5  -1   7 77902.6 3162.51   2
   5   1   7 75163.2 2853.50   2
  -5  -1   7 76737.6 2644.15   4
  -5   1   7 72868.3 2751.90   2
   5   1   7 74259.4 2681.46   4
   5  -1   8 50825.5 2478.36   1
   5  -1   8 49589.1 1425.09   3
   5   1   8 51754.9 2284.42   1
  -5   1   8 49181.9 2697.99   3
   5  -1   8 50287.3 2665.73   2
   5   1   8 51212.1 2475.00   2
   5  -1   9 22860.1 1745.25   1
   5   1   9 21603.2 1527.18   1
  -5   1   9 22374.5 1960.05   3
   5  -1   9 26510.4 2014.16   2
   5   1   9 22021.1 1725.13   2
   5  -1  10 17342.1 1585.69   1
   5   1  10 17975.4 1417.82   1
  -5   1  10 20108.1 1923.56   3
   5  -1  10 16330.9 1633.44   2
   5   1  10 18245.3 1619.75   2
   5  -1  11 44960.9 2545.58   1
   5   1  11 47754.2 2282.34   1
  -5   1  11 52368.5 3156.25   3
   5  -1  11 50209.3 2991.86   2
   5   1  11 49807.5 2740.91   2
  -5   1  12 34808.2 2706.44   3
   5  -1  12 35474.0 2637.62   2
   5   1  12 31820.6 2245.40   2
   5  -1  12 31709.9 2235.79   1
  -5   1  13 24970.3 2418.53   3
   5  -1  13 24752.4 2324.92   2
   5   1  13 26850.9 2154.57   2
   5  -1  14 21658.4 2226.01   2
  -5   2 -13-58.1366 684.947   4
   5   2 -13 917.983 747.672   4
  -5  -2 -13 2070.27 752.874   4
  -5  -2 -12 1916.74 625.490   4
   5   2 -12 1845.27 744.479   4
  -5   2 -12 1716.78 844.107   4
  -5  -2 -11-5.35953 450.912   4
  -5   2 -11-318.122 645.231   4
   5   2 -11-163.268 578.918   4
  -5  -2 -10 8853.20 1168.65   4
  -5   2 -10 9036.26 1264.20   4
   5   2 -10 9586.64 1204.64   4
  -5   2  -9 9118.44 1211.08   4
   5  -2  -9 11677.7 1070.24   1
  -5  -2  -9 9842.07 1113.37   4
   5   2  -9 9469.59 1142.96   4
  -5  -2  -8 4811.67 759.214   4
   5   2  -8 4693.05 781.625   4
  -5   2  -8 4354.30 817.478   4
   5  -2  -8 4076.52 648.502   1
  -5  -2  -7 1369.00 423.489   4
   5   2  -7 1047.87 442.035   4
  -5   2  -7 578.863 448.767   4
   5  -2  -7 1204.07 437.250   1
  -5  -2  -6 1641.20 416.401   4
   5   2  -6 1422.14 416.430   4
  -5   2  -6 1251.42 515.439   4
  -5  -2  -6 1165.79 389.216   2
   5  -2  -6 1181.37 414.542   1
  -5  -2  -5 3363.01 491.214   4
   5   2  -5 3812.12 556.166   4
  -5   2  -5 4985.27 788.094   4
  -5   2  -5 3398.63 485.660   3
  -5  -2  -5 3526.28 677.610   2
   5  -2  -5 3763.15 639.005   1
   5  -2  -5 3266.03 601.185   2
   5  -2  -4 11009.9 1008.35   2
  -5   2  -4 12100.1 865.904   3
   5  -2  -4 10931.4 995.521   1
  -5  -2  -4 11587.6 1094.01   2
   5   2  -4 10928.9 744.476   4
  -5   2  -4 12789.2 1083.25   4
  -5   2  -3 7613.46 713.701   3
  -5  -2  -3 6058.23 824.443   2
   5  -2  -3 7250.60 823.067   1
  -5   2  -3 5651.16 726.611   4
  -5   2  -2 55.8349 361.040   2
  -5  -2  -2 669.112 360.400   2
   5  -2  -2 943.756 400.925   1
   5  -2  -2 759.622 424.092   2
  -5  -2  -2 806.977 221.720   3
  -5   2  -2 637.781 326.459   3
   5   2  -2 261.525 424.839   2
   5   2  -1 26113.2 1588.11   2
  -5  -2  -1 24464.0 1038.26   3
  -5   2  -1 25357.7 1372.90   3
   5  -2  -1 20611.8 1286.61   3
   5  -2  -1 25195.0 1508.57   1
   5   2  -1 23224.1 1486.82   1
  -5   2  -1 23494.5 1502.38   2
  -5  -2  -1 23932.1 1528.87   2
   5  -2  -1 23044.3 1428.49   2
   5   2   0 68365.9 2516.98   2
  -5   2   0 66547.9 2259.80   3
   5  -2   0 66471.1 2180.93   3
   5  -2   0 71422.0 2532.15   1
   5   2   0 62880.8 2387.42   1
  -5   2   0 69051.3 2478.79   2
   5  -2   0 66560.5 2417.28   2
  -5  -2   0 66416.4 2513.55   2
   5   2   1 23024.1 1455.02   2
   5  -2   1 21868.5 1213.35   3
   5  -2   1 26487.3 1585.48   1
   5   2   1 20999.5 1373.42   1
  -5   2   1 22744.7 1402.07   3
  -5   2   1 21996.4 1395.03   2
   5  -2   1 21185.7 1459.55   2
  -5  -2   1 26892.2 1647.53   2
   5  -2   2 1201.62 469.946   1
  -5   2   2 980.638 368.138   2
   5  -2   2 380.229 441.530   2
  -5  -2   2 789.607 345.572   2
   5   2   2 1077.99 387.383   2
  -5   2   2 1520.01 472.197   3
   5  -2   2 810.756 313.009   3
   5  -2   3 5907.21 912.899   2
  -5   2   3 6418.03 780.771   2
   5  -2   3 6569.36 637.071   3
   5   2   3 5458.88 739.952   2
  -5   2   3 5821.87 844.873   3
   5  -2   3 6362.16 847.554   1
  -5  -2   3 5569.76 462.372   4
   5   2   3 6056.64 450.951   4
   5  -2   4 11225.8 1126.46   1
   5  -2   4 9720.86 773.420   3
  -5   2   4 12443.5 1214.53   3
   5  -2   4 11551.0 1199.64   2
  -5   2   4 10447.0 984.783   2
   5   2   4 10633.3 1014.88   2
   5   2   4 10896.2 730.455   4
  -5  -2   4 10948.8 742.826   4
  -5   2   5 5160.44 746.103   4
   5   2   5 4517.73 581.731   4
  -5  -2   5 3392.58 505.272   4
   5   2   5 4246.12 655.986   1
   5  -2   5 3955.75 808.340   2
  -5   2   5 3735.13 609.039   2
   5   2   5 4432.63 719.381   2
   5  -2   5 3810.23 770.466   1
   5  -2   5 4283.67 543.066   3
  -5   2   5 3969.41 782.978   3
   5   2   6 889.956 384.539   4
  -5  -2   6 1201.32 374.604   4
   5  -2   6 1347.19 603.166   2
  -5   2   6 1117.09 446.176   2
   5   2   6 1155.06 495.043   2
   5  -2   6 530.431 449.430   1
   5  -2   6 954.033 265.132   3
  -5   2   6 1129.10 538.539   3
   5   2   6 813.616 373.698   1
   5   2   7 1248.71 418.958   4
  -5  -2   7 1894.29 490.337   4
   5  -2   7 1147.49 523.458   1
   5  -2   7 1052.37 545.219   2
  -5   2   7 1027.62 418.463   2
   5   2   7 678.757 439.747   2
   5   2   7 645.227 343.209   1
   5  -2   7 1224.61 313.840   3
  -5   2   7 712.939 453.679   3
   5  -2   8 4426.76 853.160   1
   5  -2   8 3230.63 816.899   2
   5   2   8 4825.72 785.078   2
  -5   2   8 5292.02 746.452   2
   5  -2   8 5199.28 625.461   3
  -5   2   8 3783.07 917.217   3
   5   2   8 3678.42 648.763   1
   5  -2   9 7376.29 1206.43   2
   5   2   9 9836.91 1005.31   1
  -5   2   9 12304.5 1517.84   3
   5   2   9 10616.2 1167.18   2
   5  -2   9 9584.78 1231.88   1
   5   2  10 7289.14 878.067   1
   5  -2  10 8043.30 1271.54   2
  -5   2  10 7349.75 1279.58   3
   5  -2  10 8435.42 1144.54   1
   5   2  10 10600.1 1196.70   2
   5  -2  11 306.030 578.753   2
   5   2  11 442.281 439.897   2
  -5   2  11 810.074 779.004   3
   5  -2  11 998.080 569.134   1
   5  -2  12 1915.95 787.769   2
  -5   2  12 4092.37 1093.99   3
   5  -2  12 2077.45 659.081   1
   5  -2  13 359.060 675.674   2
   5  -2  13 1314.39 736.324   1
   5   3 -13 8082.25 1328.57   4
   5   3 -12 17407.5 1846.71   4
  -5   3 -12 17323.7 1978.59   4
   5   3 -11 34801.2 2402.80   4
  -5   3 -11 39464.2 2790.31   4
   5   3 -10 32126.4 2203.27   4
  -5   3 -10 28966.7 2274.43   4
   5  -3  -9 32230.1 1600.85   1
   5   3  -9 30901.1 2002.01   4
  -5   3  -9 31432.3 2273.30   4
   5  -3  -8 46395.5 1958.15   1
   5  -3  -8 44978.2 2006.85   1
   5   3  -8 49232.5 2362.22   4
  -5   3  -8 43339.7 2521.46   4
   5  -3  -7 58355.8 2203.53   1
   5  -3  -7 57204.8 2238.60   1
  -5   3  -7 58073.5 2775.85   4
  -5  -3  -7 52274.0 2373.18   2
   5   3  -7 59861.5 2399.71   4
   5  -3  -6 28116.3 1559.56   1
  -5  -3  -6 28217.0 1716.30   2
   5   3  -6 27644.3 1497.51   4
  -5   3  -6 27920.7 1869.89   4
   5  -3  -5 67068.4 2336.73   2
  -5   3  -5 70345.7 2379.37   3
   5  -3  -5 73827.6 2503.91   1
  -5  -3  -5 67272.2 2625.97   2
   5   3  -5 70882.8 2143.57   4
  -5   3  -5 72940.8 2872.15   4
  -5   3  -4 181201. 3821.12   3
  -5  -3  -4 173699. 2228.64   3
   5  -3  -4 176064. 3884.78   1
  -5  -3  -4 175909. 4178.92   2
   5   3  -4 177297. 2992.52   4
  -5   3  -4 181773. 4346.45   4
   5  -3  -4 174453. 3756.13   2
  -5   3  -3 214607. 4201.02   3
  -5  -3  -3 207305. 2932.82   3
   5  -3  -3 205444. 4245.06   1
  -5  -3  -3 195819. 4405.90   2
   5   3  -3 204324. 2722.18   4
   5  -3  -3 204457. 4080.77   2
  -5  -3  -2 99899.9 2246.31   3
  -5   3  -2 101117. 2945.15   3
  -5  -3  -2 101319. 3169.86   2
   5  -3  -2 103429. 3200.73   3
   5  -3  -2 111298. 3181.62   1
   5   3  -2 99205.0 1450.74   4
   5  -3  -2 101968. 2943.39   2
  -5  -3  -1 166466. 3110.91   3
  -5   3  -1 173833. 3918.11   3
   5  -3  -1 163454. 3907.85   3
   5  -3  -1 168458. 3972.43   1
  -5   3  -1 163222. 3982.90   2
   5  -3  -1 164321. 3823.98   2
  -5  -3  -1 163852. 4056.23   2
   5   3   0 223042. 4641.73   2
  -5  -3   0 224803. 3930.62   3
  -5   3   0 229428. 4632.53   3
   5  -3   0 230028. 4704.69   1
   5  -3   0 222646. 4429.39   3
   5   3   0 225543. 4729.33   1
  -5   3   0 215984. 4492.28   2
   5  -3   0 222914. 4574.96   2
  -5  -3   0 229113. 4825.88   2
   5   3   1 169336. 4001.96   2
  -5  -3   1 174244. 3663.15   3
  -5   3   1 175161. 4145.14   3
   5  -3   1 165701. 4084.33   1
   5  -3   1 168982. 3775.83   3
   5   3   1 166335. 4008.03   1
  -5   3   1 164816. 3835.81   2
   5  -3   1 174555. 4174.83   2
   5   3   2 100003. 3032.13   2
   5  -3   2 100941. 3276.65   1
  -5   3   2 98359.3 3216.75   3
   5  -3   2 96071.3 2816.99   3
   5   3   2 99093.1 3026.69   1
  -5   3   2 97354.1 2892.03   2
   5  -3   2 98638.0 3249.68   2
   5   3   2 97049.6 1264.95   4
   5  -3   3 202868. 4763.81   1
  -5   3   3 202957. 4762.89   3
   5  -3   3 202345. 4022.40   3
   5   3   3 201720. 4248.18   2
   5   3   3 197265. 4205.86   1
  -5   3   3 198286. 4035.93   2
   5  -3   3 206701. 4831.79   2
   5   3   3 199417. 2510.50   4
   5  -3   4 178761. 4564.24   1
   5  -3   4 168559. 3666.54   3
  -5   3   4 176076. 4594.83   3
   5   3   4 171883. 3864.53   1
   5  -3   4 179118. 4659.42   2
  -5   3   4 174968. 3747.59   2
   5   3   4 176715. 2852.23   4
   5   3   4 183776. 4056.78   2
   5  -3   5 62842.9 2813.31   1
   5  -3   5 63643.7 2293.16   3
  -5   3   5 61295.5 2837.33   3
   5   3   5 62616.1 2333.52   1
   5  -3   5 63663.1 2905.67   2
  -5   3   5 59625.6 2205.38   2
   5   3   5 62167.6 1959.30   4
   5   3   5 62763.8 2404.37   2
   5  -3   6 29996.5 2017.25   1
   5  -3   6 28823.3 1584.07   3
  -5   3   6 29064.0 2058.42   3
   5   3   6 29780.3 1600.61   1
   5   3   6 30721.1 1656.69   1
   5  -3   6 29487.3 2060.56   2
  -5   3   6 27010.6 1510.04   2
   5   3   6 32075.4 1575.71   4
   5   3   6 29140.1 1670.33   2
  -5  -3   6 31831.4 1607.48   4
   5  -3   7 59611.5 2886.34   1
   5  -3   7 55001.1 2207.89   3
  -5   3   7 54296.6 2903.73   3
   5   3   7 58857.5 2280.82   1
   5   3   7 54786.6 2135.74   1
   5  -3   7 54903.0 2884.42   2
  -5   3   7 55663.1 2152.20   2
   5   3   7 49812.5 2162.21   4
   5   3   7 51630.3 2263.04   2
  -5  -3   7 56253.1 2332.55   4
   5  -3   8 49091.3 2735.56   1
   5  -3   8 37270.1 1893.67   3
  -5   3   8 42181.1 2703.85   3
   5   3   8 45614.9 1996.04   1
   5   3   8 42440.7 1869.24   1
   5  -3   8 46266.7 2742.79   2
   5   3   8 43552.7 2102.97   2
   5  -3   9 30620.9 2264.10   1
   5   3   9 27609.4 1544.60   1
  -5   3   9 30109.3 2381.02   3
   5  -3   9 30550.9 2333.84   2
   5   3   9 31613.5 1853.03   2
  -5   3  10 31521.8 2531.82   3
   5  -3  10 36657.9 2638.58   2
   5   3  10 31205.4 1883.41   2
   5  -3  10 32718.4 2406.29   1
  -5   3  11 33462.6 2754.48   3
   5  -3  11 35852.2 2724.08   2
   5  -3  11 32955.5 2513.01   1
  -5   3  12 17405.2 2033.58   3
   5  -3  12 15255.4 1795.42   1
   5  -3  13 7358.93 1370.26   1
   5   4 -13-118.555 859.574   4
   5   4 -12 1933.89 772.085   4
  -5   4 -11 1016.23 711.017   4
   5   4 -11 2083.56 663.328   4
   5   4 -10 2020.83 707.934   4
  -5   4 -10 1784.00 857.533   4
   5   4  -9 1029.32 579.699   4
  -5   4  -9 1258.42 620.758   4
   5   4  -8 375.551 403.889   4
  -5   4  -8-88.3823 677.333   4
   5  -4  -8 261.292 329.124   1
   5   4  -7 4584.77 779.395   4
  -5   4  -7 4272.06 879.920   4
  -5  -4  -7 4944.37 783.892   2
   5  -4  -7 4270.87 646.597   1
   5  -4  -6 10874.7 954.728   2
   5  -4  -6 11267.4 1017.94   1
  -5  -4  -6 11046.0 670.223   3
  -5  -4  -6 10560.4 1100.35   2
   5   4  -6 10601.0 1006.88   4
  -5   4  -6 11417.6 1340.80   4
   5  -4  -5 7281.00 826.426   2
  -5   4  -5 7452.33 1108.03   4
  -5   4  -5 8608.38 1013.05   3
  -5  -4  -5 7407.27 903.713   2
   5  -4  -5 8579.23 919.642   1
  -5  -4  -5 8335.90 650.202   3
   5   4  -5 6876.32 764.100   4
  -5   4  -4 21382.4 1538.63   3
  -5  -4  -4 21322.1 1111.33   3
   5  -4  -4 17911.0 1313.30   1
  -5  -4  -4 20068.3 1454.93   2
   5   4  -4 22103.4 1168.79   4
   5  -4  -4 21132.4 1339.68   2
  -5   4  -4 22043.3 1715.77   4
  -5   4  -3 31683.5 1857.97   3
  -5  -4  -3 29141.0 1411.96   3
   5  -4  -3 30463.9 1741.75   1
  -5  -4  -3 33476.0 1888.25   2
   5   4  -3 29184.2 1161.29   4
   5  -4  -3 30805.2 1642.55   2
  -5   4  -2 23249.3 1622.88   3
  -5  -4  -2 21897.8 1276.29   3
   5  -4  -2 24996.4 1607.46   1
   5  -4  -2 22053.3 1435.76   2
  -5  -4  -2 20952.5 1514.23   2
   5   4  -2 23517.0 906.963   4
   5  -4  -1 4870.35 771.435   2
  -5  -4  -1 4966.71 672.162   3
  -5   4  -1 4064.18 754.119   3
   5  -4  -1 3574.55 689.663   1
   5   4  -1 4175.43 343.026   4
   5   4   0 107.084 111.851   4
  -5   4   0 371.169 345.852   2
   5  -4   0 272.945 337.178   2
  -5  -4   0 371.063 336.600   3
  -5   4   0-112.605 434.731   3
   5  -4   0 278.515 331.909   1
  -5   4   1 4224.88 694.043   2
   5  -4   1 4107.57 758.107   2
  -5  -4   1 4283.19 707.594   3
   5  -4   1 3895.69 760.741   1
  -5   4   1 4838.87 882.246   3
   5   4   1 3904.24 312.549   4
   5   4   2 22587.3 1521.78   2
  -5  -4   2 24775.6 1635.43   3
   5  -4   2 23439.5 1686.48   1
  -5   4   2 22838.2 1726.80   3
   5  -4   2 21331.1 1519.73   3
  -5   4   2 19718.5 1355.61   2
   5  -4   2 22255.7 1631.70   2
   5   4   2 22768.3 853.525   4
   5   4   3 29553.9 1738.09   2
   5  -4   3 35983.3 2130.36   1
  -5   4   3 32374.7 2088.10   3
   5  -4   3 26999.7 1720.67   3
   5   4   3 31317.9 1785.32   1
  -5   4   3 29461.8 1617.34   2
   5  -4   3 29739.3 1975.64   2
   5   4   3 30868.0 1143.95   4
   5   4   4 20535.4 1435.80   2
   5  -4   4 19538.3 1643.71   1
   5  -4   4 22095.3 1553.43   3
  -5   4   4 20043.5 1742.19   3
  -5  -4   4 20982.4 1721.84   1
   5   4   4 21504.1 1455.63   1
  -5   4   4 22547.2 1391.43   2
   5  -4   4 20414.2 1691.99   2
   5   4   4 20652.3 1071.52   4
   5   4   5 7381.55 883.981   2
   5  -4   5 8400.69 1139.09   1
  -5   4   5 6660.54 763.685   2
   5  -4   5 7812.78 1130.36   2
   5  -4   5 6942.85 905.383   3
  -5   4   5 8737.54 1232.91   3
   5   4   5 7818.16 879.216   1
  -5  -4   5 8100.19 1132.86   1
   5   4   5 7229.74 732.556   4
   5  -4   6 12457.9 1403.35   1
   5  -4   6 11381.0 1403.73   2
  -5  -4   6 11545.0 1380.86   1
  -5   4   6 11243.5 1400.87   3
   5   4   6 9840.49 973.630   1
  -5   4   6 11439.6 940.843   2
   5   4   6 11570.9 998.902   4
   5   4   6 12497.1 1109.19   2
   5  -4   7 5862.30 1111.03   2
   5   4   7 4437.90 702.372   2
  -5   4   7 5606.67 1115.76   3
   5   4   7 3914.26 644.151   1
  -5  -4   7 5141.16 1035.19   1
   5   4   7 3472.84 577.146   1
   5  -4   7 3853.27 884.844   1
   5  -4   8 561.098 657.119   2
   5   4   8 713.929 429.062   2
   5   4   8 34.9182 289.228   1
  -5   4   8 131.836 549.403   3
  -5  -4   8 768.309 666.123   1
   5  -4   8 939.156 539.065   1
   5  -4   9 961.088 708.602   2
   5   4   9 1688.32 501.428   2
  -5   4   9 1812.58 788.317   3
  -5  -4   9 1230.68 564.728   1
   5  -4   9 1400.86 710.573   1
  -5   4  10 833.384 757.433   3
  -5  -4  10 1576.96 622.136   1
   5  -4  10 1357.89 549.518   1
   5  -4  11 724.349 509.474   2
  -5  -4  11 421.211 725.646   1
  -5   4  11 420.270 672.193   3
   5  -4  11-1047.08 748.518   1
   5  -4  12 487.941 728.947   1
   5  -4  13-284.976 585.186   1
   5   5 -12 6514.33 1274.40   4
   5   5 -11 24664.9 2178.46   4
   5   5 -10 30627.8 2249.39   4
  -5   5 -10 30507.1 2587.45   4
   5   5  -9 44809.4 2571.48   4
  -5   5  -9 42103.4 2925.09   4
   5   5  -8 63563.2 2849.51   4
  -5   5  -8 60667.0 3369.31   4
   5  -5  -7 104701. 2970.76   1
   5   5  -7 107606. 3428.54   4
  -5   5  -7 104426. 4278.68   4
   5  -5  -6 63173.5 2109.23   2
  -5   5  -6 61000.1 2861.18   3
   5  -5  -6 66334.1 2447.72   1
   5   5  -6 57107.4 2344.77   4
  -5   5  -6 62772.6 3231.40   4
   5  -5  -5 62576.1 2223.22   2
  -5   5  -5 67281.2 2991.94   3
   5  -5  -5 64013.2 2478.05   1
  -5  -5  -5 60068.9 2133.54   3
  -5  -5  -5 57460.9 2502.73   2
   5   5  -5 62829.3 2279.76   4
  -5   5  -5 62702.2 3158.65   4
  -5   5  -4 67417.1 2982.48   3
   5  -5  -4 69773.3 2647.12   1
  -5  -5  -4 65267.3 2352.09   3
   5   5  -4 67264.6 2170.70   4
   5  -5  -4 66674.2 2380.32   2
   5  -5  -3 47738.2 2246.51   1
  -5   5  -3 46089.4 2463.55   3
  -5  -5  -3 45470.7 2042.61   3
   5  -5  -3 46179.1 2063.03   2
   5   5  -3 44289.8 1639.93   4
   5  -5  -2 8638.64 1038.45   1
  -5  -5  -2 8844.28 936.030   3
  -5   5  -2 8615.97 1135.46   3
   5  -5  -2 10100.7 1040.01   2
   5   5  -2 9255.67 714.687   4
   5  -5  -1 9755.90 1120.11   1
  -5  -5  -1 8684.59 1000.86   3
   5  -5  -1 6937.94 917.240   2
  -5   5  -1 9227.29 1160.25   3
   5   5  -1 8886.74 651.095   4
  -5  -5   0 11944.1 1166.27   3
   5  -5   0 8540.32 1073.78   1
  -5   5   0 10053.4 1249.91   3
   5  -5   0 9728.58 1093.69   2
   5   5   0 8266.89 642.177   4
   5  -5   1 12926.5 1333.95   1
  -5   5   1 14120.9 1469.26   3
   5  -5   1 10380.0 1179.86   2
  -5   5   2 7425.63 917.143   2
   5  -5   2 9501.01 1198.62   1
   5  -5   2 7575.79 1082.37   2
  -5   5   2 8764.09 1239.31   3
   5   5   2 8837.39 665.085   4
   5  -5   3 46287.3 2545.10   1
  -5   5   3 46771.5 2721.39   3
  -5  -5   3 42144.6 2508.95   1
  -5   5   3 38626.5 1894.95   2
   5  -5   3 45601.8 2538.77   2
   5   5   3 42364.2 1560.64   4
   5  -5   4 63553.9 3076.16   1
  -5   5   4 67574.7 3297.30   3
  -5  -5   4 71095.6 3303.98   1
  -5   5   4 59457.3 2239.21   2
   5  -5   4 62909.4 3060.84   2
   5   5   4 64587.9 2114.35   4
   5  -5   5 58410.3 3065.47   1
  -5   5   5 60055.9 3194.65   3
  -5  -5   5 59751.3 3114.38   1
  -5   5   5 57681.7 2105.40   2
   5   5   5 59736.5 2452.58   1
   5  -5   5 59620.5 3089.13   2
   5   5   5 59294.0 2156.60   4
   5  -5   6 61522.0 3220.69   1
   5   5   6 61229.4 2410.82   2
  -5   5   6 65814.9 3441.63   3
  -5  -5   6 59778.4 3212.38   1
   5  -5   6 61511.8 3225.05   2
   5  -5   7 107979. 4327.95   1
   5   5   7 102919. 3072.54   2
  -5   5   7 106702. 4473.81   3
  -5  -5   7 102196. 4268.45   1
   5   5   7 99435.9 3028.47   1
   5  -5   7 97846.5 4203.82   2
  -5   5   8 57042.7 3423.06   3
  -5  -5   8 63143.0 3481.38   1
   5  -5   8 65886.1 3606.73   2
  -5   5   9 48349.5 3287.08   3
  -5  -5   9 44876.3 3021.34   1
   5  -5   9 47345.6 3218.91   2
   5  -5   9 43544.7 2998.37   1
  -5   5  10 33738.0 2811.47   3
  -5  -5  10 28724.0 2528.42   1
   5  -5  10 30734.1 2719.76   2
   5  -5  10 30780.2 2638.20   1
  -5  -5  11 24964.6 2415.41   1
   5  -5  11 21889.4 2377.86   1
   5   6  -9-214.826 535.800   4
  -5   6  -9-337.496 928.998   4
   5   6  -8-345.159 440.083   4
  -5   6  -8 57.2933 662.001   4
   5   6  -7 909.741 442.227   4
  -5   6  -7 1376.49 779.784   4
   5   6  -6 6440.66 891.295   4
  -5   6  -6 8633.30 1404.49   4
  -5   6  -6 6931.20 1162.20   3
   5  -6  -6 7787.89 932.431   1
   5  -6  -5 7197.43 909.734   1
   5   6  -5 6654.14 851.777   4
  -5   6  -5 7159.17 1254.57   4
   5  -6  -5 6249.81 740.309   2
  -5   6  -5 7071.46 1158.17   3
   5  -6  -4 11591.3 1167.18   1
  -5   6  -4 10095.3 1331.88   3
   5   6  -4 11796.4 1029.24   4
   5  -6  -4 10381.6 995.654   2
   5  -6  -3 8197.19 1021.41   1
   5  -6  -3 8042.41 931.322   2
  -5   6  -3 8888.82 1242.79   3
   5   6  -3 7940.95 815.593   4
   5  -6  -2 3698.28 794.357   1
   5   6  -2 3486.37 565.260   4
   5  -6  -2 1487.67 531.789   2
  -5   6  -2 3983.76 924.200   3
   5  -6  -1 855.411 480.328   1
   5   6  -1 618.528 299.112   4
   5  -6  -1 1008.19 537.678   2
  -5   6  -1 912.703 547.545   3
   5  -6   0 295.524 440.322   2
  -5   6   0 624.982 553.831   3
   5  -6   0-245.949 470.206   1
   5  -6   1 1107.03 573.578   2
  -5   6   1 664.430 572.872   3
   5  -6   1 1018.94 568.801   1
   5  -6   2 1263.32 555.078   2
  -5   6   2 2211.17 840.539   3
  -5  -6   2 2128.58 706.374   1
   5  -6   2 3518.15 877.970   1
   5  -6   3 9196.24 1281.76   2
  -5   6   3 8756.99 1321.04   3
  -5  -6   3 8585.19 1255.23   1
   5  -6   3 8784.25 1229.19   1
   5  -6   4 11985.8 1462.11   1
  -5   6   4 10684.7 1462.99   3
  -5  -6   4 11890.2 1501.23   1
   5  -6   4 12958.4 1544.66   2
   5  -6   5 8349.79 1355.19   2
  -5   6   5 6295.26 1221.80   3
  -5  -6   5 8065.07 1294.51   1
   5  -6   5 8358.26 1282.78   1
   5  -6   6 6669.47 1242.77   2
  -5   6   6 7839.34 1338.65   3
  -5  -6   6 6016.58 1167.34   1
   5  -6   6 7025.47 1207.63   1
   5  -6   7 1074.44 641.515   2
  -5   6   7 1235.57 643.478   3
  -5  -6   7 1444.19 866.899   1
   5  -6   7 639.439 706.113   1
   5  -6   8-1043.38 780.754   2
  -5   6   8-219.241 649.616   3
   5  -6   8 769.014 827.147   1
  -5  -6   8-496.180 528.447   1
   5  -6   9-150.910 766.948   2
  -5   6   9-946.522 739.884   3
   5  -6   9-359.912 634.780   1
  -5  -6   9-464.880 705.329   1
  -5   7  -7 42947.5 3184.04   4
  -5   7  -6 32574.4 2612.84   3
  -5   7  -6 32636.2 2804.69   4
  -5   7  -5 29456.6 2474.97   3
  -5   7  -5 30386.9 2619.23   4
   5  -7  -5 31941.5 1971.20   1
   5  -7  -4 28997.2 1948.83   1
  -5   7  -4 26258.2 2268.38   3
   5  -7  -3 52983.1 2713.38   1
  -5   7  -3 55165.8 3198.07   3
   5  -7  -3 54589.3 2376.17   2
   5   7  -3 56719.0 2319.30   4
   5  -7  -2 36939.5 2326.74   1
  -5   7  -2 41695.2 2768.11   3
   5  -7  -2 39933.9 2153.95   2
   5   7  -2 40309.4 1896.77   4
   5  -7  -1 59985.2 3028.56   1
  -5   7  -1 60826.0 3342.79   3
   5  -7  -1 60385.1 2776.61   2
   5   7  -1 64253.3 2331.68   4
   5  -7   0 68732.7 3280.43   1
  -5   7   0 61459.5 3385.51   3
   5  -7   0 65241.1 3004.72   2
   5  -7   1 60772.8 3150.32   1
  -5   7   1 56648.2 3269.11   3
  -5  -7   1 65770.1 3312.89   1
   5  -7   1 58638.2 2962.94   2
  -5   7   2 43126.3 2910.80   3
   5  -7   2 44065.9 2775.91   1
  -5  -7   2 43590.7 2805.18   1
   5  -7   2 38967.2 2524.22   2
  -5   7   3 50454.7 3215.37   3
  -5  -7   3 51498.0 3090.29   1
   5  -7   3 55054.6 3055.67   2
   5  -7   3 48761.3 2967.60   1
  -5   7   4 34083.7 2674.09   3
  -5  -7   4 34095.6 2588.53   1
   5  -7   4 28925.2 2334.64   2
   5  -7   4 32025.0 2511.53   1
  -5   7   5 31839.1 2686.33   3
  -5  -7   5 32205.0 2612.90   1
   5  -7   5 32663.4 2551.29   2
   5  -7   5 30297.5 2531.31   1
  -5   7   6 40269.6 3056.73   3
  -5  -7   6 34868.1 2799.16   1
   5  -7   6 35628.4 2749.04   2
   5  -7   6 34179.8 2722.73   1
  -5   7   7 39896.9 3133.28   3
  -5  -7   7 42192.4 3144.52   1
   5  -7   7 39432.6 3023.66   2
   5  -7   7 36743.6 2927.14   1
  -5   8  -5 779.181 756.256   4
  -5   8  -5 702.012 795.645   3
  -5   8  -4 3913.42 993.086   3
   5  -8  -4 2200.21 633.069   1
  -5   8  -3 595.037 756.171   3
   5  -8  -3 1019.97 551.299   1
  -5   8  -2-494.505 696.388   3
   5  -8  -2 840.234 629.652   1
   5  -8  -1 1283.04 487.177   2
  -5   8  -1 1340.19 822.029   3
   5  -8  -1 362.741 553.128   1
   5  -8   0 54.5967 500.947   2
  -5   8   0 497.000 681.347   3
   5  -8   0 565.636 724.249   1
   5  -8   1 1052.99 529.326   2
  -5   8   1 611.498 728.165   3
  -5  -8   1 2557.01 874.955   1
   5  -8   1 214.195 614.123   1
   5  -8   2 1292.68 651.805   2
  -5   8   2 610.079 772.953   3
   5  -8   2 1743.89 790.954   1
  -5  -8   2 1794.08 755.369   1
   5  -8   3-98.5043 684.210   2
  -5   8   3 1913.72 840.589   3
   5  -8   3 1139.72 660.450   1
  -5  -8   3-308.718 745.691   1
   5  -8   4 1193.37 717.496   2
  -5   8   4 1042.45 812.963   3
   5  -8   4 2554.92 902.409   1
  -5  -8   4 2822.54 1049.24   1
   5  -8   5 1259.28 734.388   2
   5  -8   5 1398.10 583.294   1
  -5  -8   5 2759.84 975.779   1
   5  -8   6 4017.41 1136.78   2
   5  -9  -2 6181.46 1216.35   1
   5  -9  -1 5536.66 1121.50   1
   5  -9   0 4196.60 1036.19   1
   5  -9   1 6266.81 1151.80   2
  -5  -9   1 10783.0 1467.66   1
   5  -9   1 8141.00 1372.74   1
   5  -9   2 6284.54 1262.59   2
   5  -9   2 6336.51 1299.23   1
  -5  -9   2 8543.99 1438.59   1
   5  -9   3 14983.2 1888.26   2
   5  -9   4 14196.6 1849.36   2
  -6   0 -13 31018.0 2494.56   4
  -6   0 -12 16769.8 1847.01   4
  -6   0 -11 45832.5 2743.44   4
  -6   0 -10 33795.8 2234.25   4
  -6   0  -9 126627. 3984.92   4
  -6   0  -8 92419.8 3191.06   4
  -6   0  -7 137321. 3613.87   4
  -6   0  -6 112122. 3031.30   4
  -6   0  -5 159232. 3322.66   4
   6   0  -4 75629.3 2911.39   2
  -6   0  -4 71429.4 2037.66   4
   6   0  -3 79237.3 2919.67   2
  -6   0  -3 82579.2 1440.69   3
  -6   0  -3 80971.1 1970.68   4
   6   0  -2 68756.4 2683.44   2
  -6   0  -2 71552.7 1708.10   3
  -6   0  -2 69820.2 1678.28   4
  -6   0  -1 60762.1 1767.60   3
  -6   0  -1 58533.1 1435.93   4
   6   0  -1 55480.0 2398.18   2
   6   0   0 374.536 451.756   2
  -6   0   0 421.610 261.435   3
  -6   0   1 50818.4 1915.20   3
   6   0   1 49338.3 2264.33   1
   6   0   1 50841.4 2305.85   2
  -6   0   2 70052.1 2397.28   3
   6   0   2 70225.2 2706.52   1
  -6   0   2 67697.4 1696.84   4
   6   0   2 69496.4 2723.55   2
  -6   0   3 97645.7 3043.24   3
   6   0   3 95264.9 3197.16   1
  -6   0   3 91915.6 2171.89   4
   6   0   3 94322.5 3244.87   2
  -6   0   4 63750.9 2592.09   3
   6   0   4 59211.7 2572.15   1
  -6   0   4 59099.4 1934.43   4
   6   0   4 64626.5 2730.14   2
   6   0   5 163696. 4303.26   1
   6   0   5 159195. 4366.48   2
  -6   0   5 158507. 3426.33   4
   6   0   6 105060. 3515.97   1
  -6   0   6 106037. 3744.66   3
   6   0   6 107728. 3702.60   2
  -6   0   6 105909. 3016.28   4
   6   0   7 140771. 4140.99   1
  -6   0   7 147493. 4611.43   3
   6   0   7 140414. 4368.39   2
   6   0   8 91129.2 3409.91   1
  -6   0   8 97671.3 3932.06   3
   6   0   8 89582.8 3594.57   2
   6   0   9 115436. 3967.17   1
  -6   0   9 123835. 4632.30   3
   6   0   9 130038. 4454.95   2
   6   0  10 33976.8 2222.44   1
  -6   0  10 41272.8 2827.35   3
   6   0  10 39717.1 2597.69   2
   6   0  11 43344.3 2546.35   1
  -6   0  11 47710.2 3160.46   3
   6   0  11 46458.3 2901.08   2
  -6   0  12 18820.3 2130.83   3
   6   0  12 17588.5 1886.13   2
   6   0  13 31240.9 2528.36   2
  -6  -1 -13 7181.11 1237.90   4
  -6   1 -13 7548.58 1396.03   4
  -6  -1 -12 3724.82 920.331   4
  -6   1 -12 4113.42 1086.40   4
  -6  -1 -11 3473.20 793.308   4
  -6   1 -11 3518.38 909.431   4
  -6  -1 -10 4670.73 867.392   4
  -6   1 -10 5466.15 982.599   4
  -6  -1  -9 4002.71 779.687   4
  -6   1  -9 3308.06 821.374   4
  -6  -1  -8 2855.41 638.720   4
  -6   1  -8 4606.13 822.547   4
  -6  -1  -7 3048.11 619.565   4
  -6   1  -7 3697.21 670.709   4
  -6   1  -6 8602.38 941.024   4
  -6  -1  -6 9316.11 855.629   4
   6  -1  -5 11926.5 1210.00   2
  -6  -1  -5 13644.9 929.398   4
  -6   1  -5 13902.8 1103.10   4
   6  -1  -4 21534.4 1563.04   2
  -6   1  -4 23691.9 922.322   3
  -6  -1  -4 23432.1 1055.66   4
  -6   1  -4 25558.3 1399.24   4
   6  -1  -3 19717.3 1468.16   2
   6   1  -3 21392.6 1608.15   2
  -6   1  -3 20998.7 1005.29   3
  -6  -1  -3 20221.0 826.363   4
  -6   1  -3 18761.0 1148.13   4
   6   1  -2 20667.4 1538.76   2
  -6   1  -2 21393.3 1113.50   3
  -6  -1  -2 21671.3 839.113   3
  -6  -1  -2 20617.8 644.297   4
   6  -1  -2 18566.5 1415.54   2
  -6   1  -2 22735.0 1203.63   4
   6   1  -1 20140.6 1513.67   2
  -6   1  -1 17926.2 1103.81   3
  -6  -1  -1 18021.2 917.655   3
   6  -1  -1 19625.5 1451.32   1
   6  -1  -1 17620.8 1380.87   2
  -6   1   0 41792.1 1748.21   3
  -6  -1   0 42351.1 1584.46   3
   6  -1   0 40336.6 2053.29   1
   6   1   0 40565.4 2080.19   2
   6  -1   0 38708.1 2045.96   2
  -6   1   1 18140.0 1230.02   3
   6  -1   1 16291.2 1345.11   1
   6  -1   1 18128.8 1429.80   2
   6   1   1 16830.4 1365.76   2
  -6   1   2 21524.7 1428.43   3
   6  -1   2 20209.7 1523.33   1
   6  -1   2 18243.0 1454.23   2
  -6  -1   2 19186.5 683.073   4
   6   1   2 21052.9 1555.35   2
  -6   1   3 19179.4 1445.74   3
   6  -1   3 18124.7 1469.69   1
   6   1   3 20229.3 1495.52   1
  -6   1   3 20588.4 1206.67   4
   6  -1   3 19092.4 1531.01   2
  -6  -1   3 18628.8 844.211   4
   6   1   3 20186.7 1503.83   2
  -6   1   4 26333.0 1732.71   3
   6  -1   4 22489.0 1642.55   1
   6   1   4 24968.8 1660.40   1
  -6   1   4 23611.7 1373.93   4
   6  -1   4 23809.8 1734.81   2
  -6  -1   4 24086.0 1113.89   4
   6   1   4 25318.7 1716.01   2
   6  -1   5 12888.9 1307.21   1
  -6   1   5 12475.3 1288.37   3
   6  -1   5 11922.7 567.447   3
   6   1   5 13315.6 1244.00   1
   6  -1   5 12783.2 1340.12   2
  -6   1   5 12066.8 1049.43   4
   6   1   5 13040.8 1301.98   2
  -6  -1   5 13122.1 953.085   4
   6  -1   6 9545.09 1213.66   2
   6  -1   6 11831.2 1276.30   1
  -6   1   6 10496.1 1251.09   3
   6   1   6 10494.4 1163.56   1
   6   1   6 10221.8 1161.19   2
  -6  -1   6 10501.1 944.949   4
   6   1   7 3235.69 732.877   1
  -6  -1   7 3411.86 608.268   4
   6   1   7 3413.59 680.691   4
   6  -1   7 5330.01 960.751   2
   6   1   7 4502.86 871.217   2
   6  -1   7 3156.73 217.380   3
   6  -1   7 2647.01 683.734   1
  -6   1   7 4093.84 960.260   3
   6  -1   8 4471.83 975.809   2
   6   1   8 2931.88 718.931   2
   6  -1   8 3761.33 827.745   1
  -6   1   8 3878.74 921.063   3
   6   1   8 3679.23 765.290   1
   6  -1   9 3100.37 816.926   1
   6  -1   9 2750.12 851.602   2
   6   1   9 3964.35 846.368   2
   6   1   9 3788.90 796.901   1
  -6   1   9 4309.49 1021.54   3
   6  -1  10 3827.48 840.827   1
   6  -1  10 5209.20 1101.85   2
   6   1  10 4832.60 853.761   1
   6   1  10 4477.44 878.104   2
  -6   1  10 3510.47 911.985   3
   6  -1  11 2571.11 869.837   2
   6   1  11 2094.07 773.979   2
  -6   1  11 2546.38 957.962   3
   6  -1  11 1845.82 733.302   1
   6  -1  12 3199.55 864.312   2
   6   1  12 2583.64 747.191   2
  -6   1  12 4805.46 1210.10   3
   6  -1  12 5924.54 1125.64   1
   6  -1  13 7145.74 1293.51   2
  -6  -2 -13 23123.5 2178.64   4
  -6  -2 -12 12691.1 1513.17   4
  -6   2 -12 13469.3 1723.98   4
  -6  -2 -11 24514.7 1948.89   4
  -6   2 -11 25462.3 2231.08   4
  -6   2 -10 12389.9 1521.21   4
   6  -2 -10 12621.2 1211.64   1
  -6  -2 -10 11421.1 1267.68   4
   6  -2  -9 38248.0 2050.01   1
  -6  -2  -9 35727.4 2036.21   4
  -6   2  -9 39540.3 2465.17   4
   6  -2  -8 13965.6 1272.44   1
  -6  -2  -8 12823.6 1159.46   4
  -6   2  -8 13203.4 1388.78   4
   6  -2  -7 38155.2 2030.15   1
  -6  -2  -7 36755.9 1742.06   4
  -6   2  -7 34486.7 2077.32   4
   6  -2  -6 35324.4 1935.41   1
  -6  -2  -6 37629.5 1592.51   4
  -6   2  -6 32130.9 1911.48   4
   6  -2  -5 93269.4 3142.79   2
  -6   2  -5 99017.0 2363.37   3
   6  -2  -5 96926.9 3173.35   1
  -6  -2  -5 97215.8 2269.87   4
  -6   2  -5 97244.6 3132.92   4
   6  -2  -4 26489.7 1690.26   2
  -6   2  -4 29732.6 1370.55   3
   6  -2  -4 29896.7 1767.10   1
  -6   2  -4 28849.1 1669.38   4
  -6   2  -3 173604. 3426.32   3
   6  -2  -3 174587. 4225.22   1
   6  -2  -3 172824. 4172.90   2
  -6   2  -3 174262. 3861.03   4
   6   2  -2 164718. 4360.06   2
  -6  -2  -2 157332. 2400.36   3
  -6   2  -2 165105. 3507.47   3
   6  -2  -2 160146. 4062.59   1
   6  -2  -2 164072. 4073.25   2
   6   2  -1 262265. 5387.91   2
  -6   2  -1 279256. 4709.42   3
   6  -2  -1 272873. 5324.87   1
   6  -2  -1 261319. 5218.46   2
   6   2   0 53706.4 2449.80   2
  -6   2   0 55812.5 2208.34   3
   6  -2   0 50279.5 2034.14   3
   6  -2   0 52733.5 2409.82   1
   6  -2   0 56448.5 2474.70   2
   6   2   1 258715. 5274.26   2
  -6   2   1 260756. 4934.93   3
   6  -2   1 269816. 5480.16   1
   6  -2   1 269777. 5438.91   2
  -6   2   2 156018. 3954.00   3
   6  -2   2 150012. 3164.42   3
   6  -2   2 153002. 4176.09   1
   6  -2   2 148503. 4143.24   2
   6   2   2 159556. 4105.97   2
  -6   2   3 174865. 4363.26   3
   6  -2   3 180349. 4609.93   1
   6  -2   3 172360. 3262.74   3
   6  -2   3 181188. 4696.41   2
   6   2   3 171100. 4263.25   2
  -6  -2   3 172217. 2151.23   4
   6  -2   4 28914.5 1922.61   1
  -6   2   4 27406.6 1855.59   3
   6  -2   4 25779.0 1234.48   3
  -6   2   4 28251.6 1653.05   4
   6  -2   4 24395.6 1824.03   2
   6   2   4 24596.0 1682.99   2
  -6  -2   4 27004.3 1099.22   4
   6  -2   5 98007.1 3554.38   1
   6  -2   5 93034.7 2254.52   3
  -6   2   5 98311.0 3589.31   3
   6   2   5 99445.6 3258.77   1
   6  -2   5 96094.2 3658.41   2
   6   2   5 93643.3 3231.81   2
  -6  -2   5 96012.4 2393.30   4
   6   2   5 94136.0 2323.80   4
   6  -2   6 30103.8 2083.31   1
   6  -2   6 31247.3 1301.24   3
  -6   2   6 32730.1 2187.82   3
   6   2   6 31935.1 1892.94   1
   6  -2   6 30698.2 2184.24   2
   6   2   6 34709.5 2039.87   2
  -6  -2   6 30779.3 1526.64   4
   6   2   6 33263.3 1587.58   4
   6  -2   7 40379.7 2426.16   1
  -6   2   7 41604.2 2588.25   3
   6   2   7 42069.2 2192.85   1
   6  -2   7 43230.7 2616.80   2
   6   2   7 42833.9 2298.96   2
  -6  -2   7 40843.6 1927.34   4
   6   2   7 39313.8 1921.96   4
   6  -2   8 10816.4 1323.19   1
   6   2   8 12379.9 1233.64   1
  -6   2   8 11474.5 1474.94   3
   6  -2   8 12328.4 1531.24   2
   6   2   8 13667.7 1373.72   2
   6  -2   9 37955.3 2493.88   1
   6   2   9 33618.1 2012.19   1
  -6   2   9 42718.5 2845.72   3
   6  -2   9 36978.2 2640.57   2
   6   2   9 36215.4 2230.94   2
   6   2  10 9207.16 1226.95   2
   6   2  10 8761.18 1046.74   1
  -6   2  10 10416.1 1532.72   3
   6  -2  10 13789.4 1688.79   2
   6  -2  10 9707.42 1351.52   1
   6  -2  11 25748.2 2185.46   1
  -6   2  11 25136.8 2399.30   3
   6  -2  11 27551.5 2409.76   2
   6   2  11 25250.7 2007.32   2
   6  -2  12 12871.4 1762.22   2
   6  -2  12 10685.7 1443.55   1
   6   3 -13 2438.38 696.760   4
   6   3 -12 110.693 673.740   4
  -6   3 -12 409.139 715.463   4
   6   3 -11-93.0167 533.539   4
  -6   3 -11 498.543 621.465   4
   6   3 -10 3211.17 823.090   4
  -6   3 -10 1990.25 781.042   4
   6   3  -9 1826.48 632.863   4
  -6   3  -9 2750.88 757.018   4
   6  -3  -9 2718.09 616.296   1
   6   3  -8-154.956 370.208   4
  -6   3  -8 198.618 579.186   4
   6  -3  -8-140.008 296.892   1
   6   3  -7 1007.99 416.592   4
  -6   3  -7 1569.39 704.537   4
   6  -3  -7 2235.34 624.800   1
   6   3  -6 2900.23 530.903   4
  -6   3  -6 2743.23 691.333   4
   6  -3  -6 2027.68 576.552   2
   6  -3  -6 2322.26 538.135   1
   6   3  -5 1951.69 400.137   4
  -6   3  -5 3160.73 724.614   4
  -6   3  -5 3356.54 591.069   3
   6  -3  -5 1115.12 473.197   2
   6  -3  -5 2707.21 631.366   1
  -6   3  -4 7005.16 978.599   4
  -6   3  -4 9251.50 930.261   3
   6  -3  -4 8256.48 936.291   2
   6  -3  -4 9710.18 1083.70   1
   6   3  -4 9717.29 655.844   4
  -6  -3  -3 5362.72 494.055   3
   6  -3  -3 4811.43 807.430   2
  -6   3  -3 5510.86 777.637   3
   6  -3  -3 5500.83 832.042   1
  -6  -3  -2 4694.38 536.272   3
   6  -3  -2 3820.86 726.927   2
   6  -3  -2 5157.94 847.923   1
  -6   3  -2 4348.69 711.986   3
  -6  -3  -1 19833.1 1140.41   3
  -6   3  -1 20372.3 1486.04   3
   6  -3  -1 21174.0 1593.18   1
   6  -3  -1 18003.0 1420.78   2
   6   3   0 25099.7 1739.70   2
  -6  -3   0 23718.4 1347.39   3
  -6   3   0 26995.6 1719.18   3
   6  -3   0 22768.6 1652.37   1
   6  -3   0 24985.6 1599.94   3
   6  -3   0 26313.7 1747.50   2
   6   3   1 19752.0 1530.07   2
  -6   3   1 21674.8 1595.52   3
   6  -3   1 19683.9 1556.18   1
   6  -3   1 19513.9 1378.54   3
   6  -3   1 20699.3 1611.44   2
   6  -3   2 4232.31 842.121   2
   6   3   2 4431.39 764.507   2
  -6   3   2 4944.57 863.537   3
   6  -3   2 4909.29 686.113   3
   6  -3   2 5501.20 889.517   1
   6  -3   3 5074.74 934.437   2
   6  -3   3 6321.13 789.496   3
   6   3   3 4593.98 825.418   2
  -6   3   3 4997.55 891.575   3
   6  -3   3 5774.44 909.799   1
   6   3   4 10231.3 1111.28   2
  -6   3   4 6953.97 906.758   2
   6  -3   4 7494.93 833.228   3
   6  -3   4 8253.50 1147.33   1
  -6   3   4 9867.94 1241.04   3
   6  -3   4 9583.27 1244.47   2
   6   3   4 9508.43 625.302   4
   6   3   5 1733.96 379.033   4
  -6   3   5 3179.27 604.970   2
   6  -3   5 1643.37 697.034   2
   6  -3   5 1798.95 614.637   1
   6   3   5 2231.13 619.823   2
   6  -3   5 1863.97 487.180   3
  -6   3   5 2458.10 759.594   3
   6   3   6 2867.81 524.157   4
  -6  -3   6 2272.86 476.716   4
   6  -3   6 3487.92 826.473   2
  -6   3   6 2443.74 581.512   2
   6  -3   6 1542.10 666.248   1
   6   3   6 4031.53 742.450   2
   6  -3   6 3120.46 524.896   3
  -6   3   6 1570.87 602.199   3
   6   3   6 2916.18 650.517   1
  -6  -3   7 1580.66 421.957   4
   6  -3   7 1355.26 569.536   1
   6  -3   7 987.885 602.129   2
   6   3   7 1471.97 469.557   2
  -6   3   7 1497.25 725.718   3
   6   3   7 1477.40 499.821   1
   6  -3   8-250.008 557.600   1
   6  -3   8 101.076 490.605   2
   6   3   8 361.410 445.447   1
   6   3   8 43.6888 336.456   2
  -6   3   8 219.580 712.935   3
   6  -3   9 3187.04 852.834   2
   6   3   9 1659.21 619.125   2
  -6   3   9 2033.59 791.690   3
   6   3   9 1520.04 493.554   1
   6  -3   9 2956.31 849.050   1
   6  -3  10 2090.33 710.565   2
   6   3  10 2359.09 647.746   2
  -6   3  10 3180.39 1053.46   3
   6  -3  10 3889.82 979.716   1
   6  -3  11 813.495 685.045   2
  -6   3  11 696.280 590.985   3
   6  -3  11 2201.06 841.575   1
   6  -3  12 2016.02 786.388   1
   6  -3  13-1914.44 839.354   1
   6   4 -11 28716.9 2183.02   4
  -6   4 -11 32090.2 2657.81   4
   6   4 -10 23964.9 1894.18   4
  -6   4 -10 22440.4 2156.86   4
   6   4  -9 66295.2 2904.35   4
  -6   4  -9 69578.7 3601.25   4
   6  -4  -8 24594.0 1591.32   1
   6   4  -8 23218.3 1648.82   4
  -6   4  -8 24966.4 2121.77   4
   6  -4  -7 69394.6 2707.84   1
   6   4  -7 65288.7 2506.96   4
  -6   4  -7 70960.6 3390.95   4
   6  -4  -6 51695.2 2282.22   2
  -6   4  -6 53898.2 2429.37   3
  -6   4  -6 49945.6 2751.68   4
   6  -4  -6 54218.9 2422.23   1
   6   4  -6 51589.0 2024.60   4
   6  -4  -5 99581.3 3182.47   2
  -6   4  -5 104472. 3393.05   3
   6  -4  -5 99087.4 3298.31   1
   6   4  -5 100155. 2520.21   4
  -6   4  -5 103523. 3828.30   4
  -6   4  -4 25435.3 1717.75   3
  -6  -4  -4 25664.9 1125.99   3
   6  -4  -4 26705.1 1764.29   1
   6   4  -4 26284.3 1118.32   4
   6  -4  -4 23593.4 1596.43   2
  -6   4  -4 29004.3 2027.82   4
  -6   4  -3 66198.3 2743.01   3
  -6  -4  -3 66419.1 2043.19   3
   6  -4  -3 68658.2 2830.72   1
   6   4  -3 66889.7 1439.06   4
   6  -4  -3 64969.1 2644.82   2
  -6   4  -2 52195.0 2461.78   3
  -6  -4  -2 54787.9 1983.86   3
   6  -4  -2 51413.3 2466.07   1
   6  -4  -2 53100.5 2420.69   2
  -6  -4  -1 38901.6 1800.06   3
  -6   4  -1 40045.3 2224.32   3
   6  -4  -1 36978.6 2142.59   1
   6  -4  -1 36030.0 2038.73   2
   6  -4   0 873.897 473.725   2
  -6  -4   0 2089.24 497.101   3
  -6   4   0 1447.56 571.942   3
   6  -4   0 1907.66 587.528   1
  -6  -4   1 41677.9 2089.72   3
   6  -4   1 40100.4 2317.46   1
  -6   4   1 42385.9 2390.85   3
   6  -4   1 39838.4 2257.02   2
   6   4   2 48644.8 2416.93   2
   6  -4   2 45950.3 2506.07   1
  -6   4   2 50133.3 2653.99   3
   6  -4   2 51917.7 2645.63   2
   6   4   3 68351.7 2807.14   2
   6  -4   3 70007.0 3143.01   1
  -6   4   3 67102.5 3120.39   3
   6  -4   3 65196.6 3079.96   2
   6   4   3 65337.7 1248.55   4
   6   4   4 27075.8 1773.96   2
   6  -4   4 31499.5 2176.32   1
  -6   4   4 26862.0 2110.17   3
  -6   4   4 26439.8 1680.94   2
   6  -4   4 30969.4 2175.75   2
   6   4   4 29985.3 1120.91   4
   6   4   5 94220.5 3280.06   2
   6  -4   5 94064.3 3811.31   1
  -6   4   5 98418.8 3987.13   3
  -6   4   5 84064.4 2902.05   2
   6  -4   5 96538.2 3909.26   2
   6   4   6 53617.8 2486.24   2
   6  -4   6 54014.3 3002.35   1
  -6   4   6 53156.7 3080.75   3
   6  -4   6 50858.6 2970.28   2
   6   4   7 70202.8 2874.18   2
   6  -4   7 69310.9 3458.64   1
  -6   4   7 69890.8 3609.10   3
   6   4   7 70120.7 2802.99   1
   6  -4   7 72217.6 3621.05   2
   6   4   8 25519.0 1757.48   2
   6  -4   8 25090.5 2206.25   1
  -6   4   8 25522.5 2319.61   3
   6   4   8 23970.8 1608.67   1
   6  -4   8 26300.9 2303.43   2
   6  -4   9 68548.0 3660.97   1
  -6   4   9 68506.6 3836.96   3
   6  -4   9 71007.9 3856.15   2
   6   4   9 67357.6 2836.50   2
  -6   4  10 22273.0 2373.54   3
   6  -4  10 21411.3 2254.59   2
   6  -4  10 24532.1 2325.05   1
   6  -4  11 28924.3 2579.77   1
   6  -4  12 10180.4 1627.63   1
  -6   5 -10 486.180 780.270   4
  -6   5  -9 855.476 740.427   4
  -6   5  -8 498.244 648.861   4
   6   5  -7 5529.84 826.280   4
  -6   5  -7 6341.27 1265.83   4
   6  -5  -7 7408.58 938.192   1
   6  -5  -6 14886.4 1241.85   2
  -6   5  -6 13940.6 1434.27   3
   6  -5  -6 15888.7 1367.28   1
   6   5  -6 13846.5 1131.99   4
  -6   5  -6 15135.7 1721.90   4
   6   5  -5 6070.12 711.950   4
  -6   5  -5 6422.38 1196.01   4
  -6   5  -5 7324.68 1083.41   3
   6  -5  -5 5265.27 808.892   2
   6  -5  -5 6631.50 936.140   1
  -6   5  -4 13401.0 1416.50   3
   6  -5  -4 13672.3 1303.40   1
   6   5  -4 12949.1 888.450   4
   6  -5  -4 11743.3 1157.89   2
   6   5  -3 3412.07 412.407   4
   6  -5  -3 4923.69 808.737   2
  -6   5  -3 4155.31 857.388   3
   6  -5  -3 4489.70 866.668   1
  -6  -5  -3 4193.39 638.387   3
   6  -5  -2 1387.18 541.240   2
   6  -5  -2 3469.77 787.356   1
  -6   5  -2 3916.23 840.904   3
  -6  -5  -2 3441.49 638.516   3
   6   5  -2 2975.53 331.088   4
   6   5  -1 731.232 139.474   4
   6  -5  -1 830.597 485.290   2
   6  -5  -1 526.386 533.127   1
  -6  -5  -1 758.053 382.103   3
  -6   5  -1 1126.23 583.751   3
   6  -5   0-191.749 444.511   2
   6  -5   0-99.7228 480.767   1
  -6   5   0-199.516 490.234   3
   6   5   1 750.545 120.093   4
   6  -5   1 728.171 464.804   2
   6  -5   1 810.363 529.202   1
  -6   5   1 714.964 603.376   3
   6  -5   2 2792.77 763.207   1
   6  -5   2 3138.03 817.487   2
  -6   5   2 4530.73 964.147   3
   6  -5   3 4798.72 982.072   1
   6  -5   3 4880.62 988.104   2
  -6   5   3 4773.00 1015.61   3
   6  -5   4 12589.5 1506.11   1
  -6   5   4 13164.5 1586.40   3
   6  -5   4 13477.7 1566.90   2
   6  -5   5 5614.39 1102.48   1
   6  -5   5 6956.72 1241.59   2
   6   5   5 5997.21 905.261   2
  -6   5   5 6549.07 1208.27   3
   6  -5   6 15531.1 1742.68   1
   6   5   6 13293.9 1296.73   2
   6  -5   6 14129.5 1711.28   2
  -6   5   6 17524.7 1922.36   3
   6  -5   7 5662.59 1166.45   2
   6   5   7 6844.61 937.022   2
  -6   5   7 6000.12 1251.96   3
   6  -5   7 7877.23 1306.45   1
   6   5   7 8298.22 1035.31   1
   6  -5   8 172.384 654.294   2
  -6   5   8-483.377 731.010   3
   6  -5   8-458.984 532.252   1
   6  -5   9 1832.46 719.433   2
  -6   5   9 1113.67 792.402   3
   6  -5   9-345.997 824.092   1
   6  -5  10-123.684 540.464   1
  -6   6  -8 4743.15 1162.78   4
  -6   6  -7 20672.9 2147.96   4
   6  -6  -6 19066.6 1533.51   1
  -6   6  -6 18878.6 1861.27   3
  -6   6  -6 17701.0 1989.36   4
   6  -6  -5 41134.8 2049.98   2
   6  -6  -5 42816.1 2341.19   1
  -6   6  -5 42532.7 2706.58   3
  -6   6  -5 45532.9 3039.48   4
   6  -6  -4 13342.3 1368.23   1
  -6   6  -4 13350.0 1546.19   3
   6  -6  -4 12726.7 1225.14   2
   6  -6  -3 62203.2 2936.89   1
  -6   6  -3 62590.0 3227.41   3
   6  -6  -3 61109.2 2668.82   2
   6  -6  -2 64209.5 3019.10   1
  -6   6  -2 71885.9 3446.05   3
   6  -6  -2 66837.1 2883.49   2
   6  -6  -1 105637. 3922.77   1
  -6   6  -1 107812. 4228.95   3
   6  -6  -1 108439. 3763.00   2
   6  -6   0 25389.5 2010.65   1
  -6   6   0 25947.3 2174.56   3
   6  -6   0 26342.4 1959.27   2
   6  -6   1 112429. 4204.12   1
  -6   6   1 105182. 4271.29   3
   6  -6   1 107808. 4010.85   2
   6  -6   2 70918.5 3425.54   1
  -6   6   2 73294.8 3644.12   3
   6  -6   2 67216.2 3275.47   2
   6  -6   3 54740.8 3118.21   1
  -6   6   3 61859.6 3440.78   3
   6  -6   3 58749.8 3164.25   2
   6  -6   4 15976.0 1785.57   1
  -6   6   4 15611.3 1853.38   3
   6  -6   4 16970.0 1828.58   2
   6  -6   5 41780.9 2854.47   1
  -6   6   5 40345.5 2932.37   3
   6  -6   5 42321.6 2884.34   2
   6  -6   6 20491.7 2096.29   1
  -6   6   6 21383.5 2265.48   3
   6  -6   6 18810.7 2086.37   2
  -6   6   7 22485.9 2352.78   3
   6  -6   7 19412.1 2135.61   2
   6  -6   7 18248.7 2037.09   1
   6  -6   8 2575.17 977.736   2
  -6   6   8 4103.42 1220.41   3
   6  -6   8 3256.18 941.993   1
  -6   7  -6 1139.69 866.474   4
  -6   7  -6 377.710 671.730   3
  -6   7  -5 372.480 679.625   4
  -6   7  -5 828.141 751.241   3
   6  -7  -5 385.890 393.856   1
  -6   7  -4 1072.16 858.881   3
   6  -7  -4 2297.90 709.030   1
   6  -7  -3-152.820 470.857   2
  -6   7  -3 632.714 730.027   3
   6  -7  -3 1413.04 612.336   1
   6  -7  -2 1556.12 577.521   2
  -6   7  -2 291.701 709.573   3
   6  -7  -2 1426.23 612.139   1
   6  -7  -1 1523.87 644.743   2
  -6   7  -1 1461.15 844.983   3
   6  -7  -1 358.165 552.549   1
   6  -7   0 1117.26 587.764   2
  -6   7   0 1918.91 848.522   3
   6  -7   0 1883.12 763.745   1
   6  -7   1 176.898 605.021   2
  -6   7   1 376.520 675.707   3
   6  -7   1 2054.17 706.114   1
   6  -7   2 1140.69 683.732   2
  -6   7   2 619.734 701.348   3
   6  -7   2 544.729 616.808   1
   6  -7   3-234.760 730.373   2
  -6   7   3-200.491 653.647   3
   6  -7   3 713.613 615.022   1
   6  -7   4 1127.34 747.468   2
  -6   7   4 1629.03 812.234   3
   6  -7   4 1207.65 699.338   1
   6  -7   5-18.9617 770.764   2
  -6   7   5-213.563 908.521   3
   6  -7   6 439.261 682.301   2
  -6  -7   6 1353.36 827.393   1
  -6   7   6 2375.52 1053.72   3
   6  -7   6-538.606 826.536   1
  -6   8  -6 16089.1 2003.87   3
  -6   8  -5 31936.5 2771.35   3
  -6   8  -4 4870.40 1166.10   3
  -6   8  -3 29036.2 2595.48   3
   6  -8  -3 24060.8 2037.57   1
  -6   8  -2 17155.8 2031.04   3
   6  -8  -2 16741.0 1786.65   1
  -6   8  -1 30659.8 2663.44   3
   6  -8  -1 29588.5 2172.35   2
   6  -8  -1 27812.0 2356.23   1
   6  -8   0 2935.26 899.540   2
  -6   8   0 4026.33 1099.63   3
   6  -8   0 3319.26 915.040   1
  -6   8   1 26888.1 2560.66   3
   6  -8   1 26479.7 2255.22   2
   6  -8   1 25350.3 2298.27   1
  -6   8   2 18410.8 2197.47   3
   6  -8   2 19902.4 2031.42   2
   6  -8   2 21521.3 2133.17   1
   6  -8   3 24641.8 2333.69   2
   6  -8   3 24753.5 2375.19   1
   6  -8   4 5671.11 1289.71   2
   6  -8   5 31693.2 2747.92   2
   6  -9  -2 843.479 403.633   1
   6  -9  -1-352.643 750.040   1
   6  -9   0-222.982 600.340   1
   6  -9   2 1552.84 598.664   2
   6  -9   3-1846.56 778.145   2
  -7   0 -13 717.902 573.886   4
  -7   0 -12-1443.90 787.152   4
  -7   0 -11-31.6903 510.768   4
  -7   0 -10-1666.61 660.618   4
  -7   0  -9 223.168 477.487   4
  -7   0  -8 474.063 323.268   4
  -7   0  -7-224.192 399.387   4
  -7   0  -6 374.616 354.710   4
  -7   0  -5 86.3613 279.269   4
  -7   0  -4 82.4521 218.180   4
   7   0  -4-117.718 460.421   2
  -7   0  -3 163.078 261.245   4
   7   0  -3-81.7256 423.594   2
  -7   0  -3 145.032 180.037   3
  -7   0  -2 85.5872 195.216   4
   7   0  -2 212.221 510.889   2
  -7   0  -2 136.683 221.870   3
  -7   0  -1 53.6493 195.851   4
   7   0  -1-31.4012 478.229   2
  -7   0  -1-83.5366 271.683   3
   7   0   0 239.408 425.273   2
  -7   0   0 64.7562 264.582   3
  -7   0   1 34.1776 160.515   4
   7   0   1 150.903 478.150   1
   7   0   1-194.054 527.291   2
  -7   0   1 310.523 378.161   3
  -7   0   2 238.022 208.756   4
   7   0   2 298.666 459.926   2
  -7   0   2-59.4072 411.173   3
   7   0   2-311.702 588.155   1
  -7   0   3 55.2813 236.697   4
   7   0   3 250.798 518.513   1
   7   0   3-115.438 536.295   2
  -7   0   3 543.141 448.348   3
  -7   0   4-22.6786 232.922   4
   7   0   4 371.346 548.680   2
  -7   0   4 152.902 462.511   3
   7   0   4 28.6944 384.831   1
  -7   0   5-192.133 294.450   4
   7   0   5-724.677 517.820   2
   7   0   5 543.484 513.646   1
  -7   0   5 242.679 474.302   3
  -7   0   6-111.228 267.330   4
   7   0   6-50.6294 451.187   1
   7   0   6-478.334 466.818   2
  -7   0   6-133.885 469.351   3
   7   0   7-146.204 574.166   2
  -7   0   7-434.674 694.974   3
   7   0   7 591.691 483.730   1
   7   0   8 754.699 601.188   2
   7   0   8-78.7384 496.828   1
  -7   0   8-872.210 600.341   3
   7   0   9 620.166 651.727   2
   7   0   9 602.422 485.102   1
  -7   0   9 867.295 614.616   3
   7   0  10-1167.22 596.721   1
   7   0  10 43.4599 573.137   2
  -7   0  10 283.142 655.107   3
   7   0  11-462.076 615.274   1
  -7   0  11-792.819 799.514   3
   7   0  12-86.1474 508.585   2
   7   0  13-2475.12 969.874   2
  -7  -1 -12 3804.80 897.469   4
  -7   1 -12 2946.52 966.004   4
  -7  -1 -11 32480.9 2263.69   4
  -7   1 -11 28666.3 2325.89   4
  -7  -1 -10 7007.71 1078.31   4
  -7   1 -10 9142.50 1278.23   4
  -7  -1  -9 78589.2 3016.37   4
  -7   1  -9 69226.9 3116.11   4
  -7  -1  -8 28903.5 1741.51   4
  -7   1  -8 29658.8 1958.37   4
  -7  -1  -7 113357. 3129.16   4
  -7   1  -7 113689. 3543.41   4
  -7  -1  -6 14833.9 1060.15   4
  -7   1  -6 13776.3 1212.42   4
   7  -1  -5 143125. 4363.40   2
  -7  -1  -5 149442. 2942.87   4
  -7   1  -5 146169. 3556.67   4
   7  -1  -4 50645.7 2582.13   2
  -7   1  -4 52821.3 1414.30   3
  -7  -1  -4 49355.9 1471.41   4
   7  -1  -3 99452.0 3516.28   2
   7   1  -3 93475.7 3549.34   2
  -7   1  -3 104220. 2333.50   3
  -7  -1  -3 98411.4 1714.50   4
  -7   1  -3 99611.0 2663.71   4
  -7   1  -2 2488.42 512.112   4
   7  -1  -2 1805.41 628.911   1
   7  -1  -2 2570.24 650.613   2
   7   1  -2 2611.33 777.062   2
  -7   1  -2 2455.17 496.331   3
  -7  -1  -2 1422.53 319.596   3
  -7  -1  -2 1558.97 165.909   4
   7   1  -1 83185.2 3253.66   2
  -7   1  -1 84750.1 2538.87   3
  -7  -1  -1 78578.8 2105.49   3
   7  -1  -1 79193.2 3114.65   1
   7  -1  -1 83982.0 3212.04   2
   7   1   0 44560.0 2402.23   2
  -7   1   0 42834.8 1914.43   3
  -7  -1   0 44526.4 1759.74   3
   7  -1   0 44142.9 2356.62   1
   7  -1   0 44188.6 2360.89   2
  -7   1   1 81040.5 2745.78   3
  -7  -1   1 78523.4 2540.26   3
   7  -1   1 72877.9 3062.53   1
   7  -1   1 74846.4 3100.00   2
   7   1   1 77586.1 3105.53   2
   7  -1   2 3407.82 841.068   2
   7   1   2 3535.58 755.109   2
  -7   1   2 4315.50 763.831   3
  -7  -1   2 3403.15 693.627   3
   7  -1   2 2674.56 707.877   1
  -7  -1   2 3269.43 278.439   4
  -7   1   3 96524.3 3341.04   3
   7  -1   3 103631. 3703.36   1
   7   1   3 98384.6 3560.75   1
  -7   1   3 98717.6 2680.78   4
   7  -1   3 100861. 3690.04   2
  -7  -1   3 99176.8 1863.45   4
   7   1   3 95892.6 3506.93   2
  -7   1   4 52434.0 2573.06   3
   7  -1   4 57046.5 2800.70   1
   7   1   4 54355.3 2653.02   1
  -7   1   4 50252.5 2023.22   4
   7  -1   4 49545.0 2673.67   2
  -7  -1   4 50104.5 1579.45   4
   7   1   4 53818.4 2680.09   2
   7  -1   5 148908. 4571.11   1
  -7   1   5 148236. 4505.17   3
   7   1   5 150261. 4426.04   1
  -7   1   5 136897. 3543.33   4
   7  -1   5 142456. 4577.20   2
  -7  -1   5 140449. 2981.75   4
   7   1   5 145387. 4436.76   2
   7  -1   6 13270.0 1452.41   1
  -7   1   6 14843.7 1569.23   3
   7   1   6 16075.5 1553.14   1
   7  -1   6 13616.8 1495.88   2
   7   1   6 16658.5 1581.88   2
  -7  -1   6 16349.5 1162.30   4
   7  -1   7 108078. 4045.87   1
  -7   1   7 114909. 4348.34   3
   7   1   7 115130. 3951.66   1
   7  -1   7 118983. 4399.25   2
   7   1   7 113169. 4087.06   2
   7  -1   8 33734.7 2342.66   1
   7   1   8 30772.0 2129.12   1
  -7   1   8 32722.6 2470.70   3
   7  -1   8 32600.7 2421.48   2
   7   1   8 30281.4 2215.31   2
   7  -1   9 75261.1 3567.91   1
   7   1   9 68986.7 3211.17   1
  -7   1   9 76345.1 3880.08   3
   7  -1   9 70108.0 3620.48   2
   7   1   9 73201.8 3505.94   2
   7  -1  10 6519.91 1130.58   1
   7  -1  10 9043.39 1396.85   2
   7   1  10 6901.70 1227.88   2
   7   1  10 6425.08 1046.06   1
  -7   1  10 5537.00 1201.69   3
   7  -1  11 31894.8 2477.07   1
  -7   1  11 29701.5 2714.39   3
  -7  -1  11 37009.8 2926.63   3
   7  -1  11 33281.4 2671.24   2
   7   1  11 34109.1 2569.91   2
   7  -1  12 3094.00 939.128   2
   7   1  12 4696.24 1054.49   2
  -7   2 -12 2956.99 974.801   4
  -7   2 -11 564.232 652.026   4
  -7  -2 -10 6172.02 972.401   4
  -7   2 -10 6921.63 1249.23   4
   7  -2 -10 7189.14 1046.81   1
  -7  -2  -9 3363.22 673.364   4
  -7   2  -9 1836.25 690.801   4
   7  -2  -9 2674.17 671.154   1
   7  -2  -8 715.097 436.842   1
  -7   2  -8 1271.70 617.863   4
  -7   2  -7 476.667 417.014   4
   7  -2  -7 211.445 422.473   1
  -7  -2  -7 637.596 356.468   4
  -7   2  -6 584.016 440.473   4
   7  -2  -6 636.128 471.362   1
   7  -2  -6 332.989 409.050   2
  -7   2  -5 3090.83 656.296   4
   7  -2  -5 2339.22 665.923   1
  -7   2  -5 2203.49 434.296   3
   7  -2  -5 1848.76 605.181   2
  -7   2  -4 4692.53 766.629   4
  -7   2  -4 4573.14 599.863   3
   7  -2  -4 5136.40 848.559   2
   7  -2  -4 3351.07 761.039   1
  -7   2  -3 7496.38 906.678   4
  -7   2  -3 8539.43 848.424   3
  -7  -2  -3 6403.32 315.731   3
   7  -2  -3 7654.84 1037.23   2
   7  -2  -3 8161.15 1080.71   1
  -7  -2  -2 6885.34 560.843   3
   7  -2  -2 7946.07 1085.73   1
  -7   2  -2 8766.68 901.647   3
  -7  -2  -2 6652.17 560.266   3
   7  -2  -2 8032.35 1100.06   2
   7   2  -2 6975.50 1035.94   2
   7  -2  -1 4895.57 863.475   1
   7  -2  -1 3550.82 768.787   2
   7   2  -1 5136.98 978.873   2
  -7   2  -1 5613.24 797.398   3
   7   2   0 17897.5 1569.05   2
  -7   2   0 15408.8 1274.69   3
   7  -2   0 16633.5 1521.99   1
   7  -2   0 15600.6 1468.76   2
   7  -2   1 5961.67 967.291   2
   7   2   1 6939.78 1027.62   2
   7  -2   1 4135.27 881.867   1
  -7   2   1 5271.11 852.077   3
   7  -2   2 6112.65 994.820   2
   7  -2   2 6085.00 1023.14   1
   7   2   2 8033.82 1067.02   2
  -7   2   2 7989.44 1029.99   3
   7  -2   3 6716.40 1033.07   1
   7  -2   3 6869.37 1070.87   2
   7  -2   3 7451.90 753.260   3
   7   2   3 8221.64 1088.48   2
  -7   2   3 7324.85 1020.75   3
   7  -2   4 4368.56 909.353   2
   7   2   4 4658.81 879.287   2
  -7   2   4 4440.52 899.649   3
   7  -2   4 4800.11 577.961   3
   7   2   4 4997.89 872.090   1
   7  -2   4 5444.98 958.842   1
  -7  -2   4 5315.99 475.903   4
  -7  -2   5 1433.30 335.081   4
   7  -2   5 3087.18 831.998   2
   7   2   5 2142.80 637.346   2
  -7   2   5 1379.95 586.108   3
   7  -2   5 2205.18 730.784   1
   7   2   5 1845.60 612.147   1
   7   2   6 532.199 562.433   1
  -7  -2   6 311.077 310.104   4
   7  -2   6-549.740 680.124   2
   7   2   6 482.017 502.499   2
   7  -2   6 425.738 534.979   1
  -7   2   6 1327.69 647.093   3
   7  -2   7 18.9706 548.828   2
   7   2   7 721.189 455.971   2
   7  -2   7 834.967 489.159   1
   7   2   7 388.752 483.685   1
  -7   2   7-117.323 530.860   3
   7   2   8 1251.56 547.666   1
   7  -2   8 2063.12 716.140   2
   7  -2   8 605.026 620.540   1
   7   2   8 877.904 551.372   2
  -7   2   8 759.627 549.337   3
   7  -2   9 2994.99 848.826   1
   7  -2   9 3623.27 938.785   2
   7   2   9 3493.26 876.059   2
  -7   2   9 3293.23 933.922   3
   7   2   9 1512.98 601.643   1
   7  -2  10 5914.75 1135.96   1
   7  -2  10 7479.51 1408.30   2
   7   2  10 7079.88 1193.15   2
  -7   2  10 5539.64 1237.63   3
   7  -2  11 1696.89 878.227   2
   7   2  11 745.837 620.961   2
   7  -2  11 344.329 612.918   1
   7  -2  12 3767.36 1056.31   1
  -7   3 -11 33260.0 2660.45   4
  -7   3 -10 7791.97 1311.36   4
   7  -3  -9 50393.7 2545.86   1
  -7   3  -9 47684.6 2884.61   4
   7  -3  -8 16425.2 1507.02   1
  -7   3  -8 16437.6 1695.08   4
   7  -3  -7 45318.8 2420.89   1
  -7   3  -7 47847.8 2668.98   4
  -7   3  -6 8319.02 1147.45   4
   7  -3  -6 5777.39 953.284   2
   7  -3  -6 6672.23 988.580   1
   7  -3  -5 69690.9 2962.45   2
  -7   3  -5 72464.1 2494.48   3
   7  -3  -5 75679.8 3109.77   1
  -7   3  -5 75392.8 3135.14   4
   7  -3  -4 34045.6 2068.61   2
  -7   3  -4 37420.9 1881.39   3
   7  -3  -4 33909.0 2120.92   1
  -7   3  -4 31736.3 2006.80   4
  -7   3  -3 77285.0 2752.77   3
  -7  -3  -3 73580.4 1628.51   3
   7  -3  -3 75768.3 3122.90   1
   7  -3  -3 75025.2 3067.98   2
  -7   3  -3 81295.4 3079.89   4
   7  -3  -2 5081.32 875.318   2
  -7  -3  -2 4854.94 558.359   3
   7  -3  -2 3677.15 792.664   1
  -7   3  -2 5497.13 818.266   3
   7   3  -1 74893.9 3234.89   2
  -7  -3  -1 75386.3 2280.24   3
  -7   3  -1 79409.5 2970.99   3
   7  -3  -1 71361.7 3103.19   1
   7  -3  -1 75029.3 3149.57   2
   7   3   0 46416.0 2571.29   2
  -7  -3   0 43249.0 1896.72   3
  -7   3   0 46112.1 2362.75   3
   7  -3   0 46211.5 2535.86   1
   7  -3   0 42295.4 2411.31   2
   7   3   1 79935.1 3245.81   2
  -7   3   1 80329.1 3190.05   3
   7  -3   1 75941.7 3260.55   1
   7  -3   1 71998.6 2691.99   3
   7  -3   1 78002.5 3269.25   2
   7  -3   2 3162.75 810.723   2
   7   3   2 5118.48 918.659   2
  -7   3   2 4460.92 866.478   3
   7  -3   2 3999.04 696.560   3
   7  -3   2 3942.14 832.445   1
   7   3   3 70332.3 3041.04   2
   7  -3   3 72357.3 3284.60   1
  -7   3   3 73878.3 3233.98   3
   7  -3   3 66181.7 2466.85   3
   7  -3   3 70867.5 3257.52   2
   7   3   4 34209.3 2152.86   2
   7  -3   4 38024.4 2458.75   1
  -7   3   4 37734.7 2389.66   3
   7  -3   4 36316.6 1762.31   3
   7  -3   4 34266.3 2368.14   2
   7  -3   5 64205.2 3243.12   1
  -7   3   5 68320.7 3330.48   3
   7   3   5 67115.4 2980.83   1
   7  -3   5 70419.4 3430.86   2
   7   3   5 60549.1 2884.72   2
   7  -3   6 6521.16 1137.34   2
   7  -3   6 5860.73 1060.83   1
   7   3   6 6578.30 1030.04   2
  -7   3   6 7105.99 1227.08   3
   7   3   6 8148.64 1091.96   1
   7  -3   7 46312.7 2900.26   1
  -7   3   7 54453.2 3201.12   3
   7   3   7 49346.9 2612.67   1
   7  -3   7 51070.3 3115.25   2
   7   3   7 51861.7 2734.60   2
   7  -3   8 14593.8 1707.48   1
   7   3   8 14592.8 1456.12   1
  -7   3   8 14352.6 1764.39   3
   7  -3   8 16594.0 1936.30   2
   7   3   8 14294.0 1479.92   2
   7  -3   9 45080.3 2978.18   1
  -7   3   9 51275.2 3384.06   3
   7  -3   9 48673.5 3220.89   2
   7   3   9 46460.7 2664.38   2
   7  -3  10 4045.13 1094.04   2
   7   3  10 7636.52 1151.37   2
  -7   3  10 4978.93 1231.92   3
   7  -3  10 6329.07 1255.61   1
   7  -3  11 26106.6 2483.63   1
   7  -3  12 6035.53 1253.37   1
  -7   4 -10-270.082 818.183   4
  -7   4  -9 619.739 729.212   4
   7  -4  -8 711.310 465.787   1
  -7   4  -8 1495.29 887.087   4
  -7   4  -7 133.726 703.448   4
   7  -4  -7 546.995 455.619   1
  -7   4  -6 5194.50 1042.18   4
   7  -4  -6 5936.23 934.778   1
  -7   4  -6 5597.49 852.652   3
   7  -4  -6 5883.97 940.587   2
   7  -4  -5 2524.99 691.263   1
  -7   4  -5 2972.24 789.279   4
  -7   4  -5 1539.17 529.319   3
  -7   4  -4 15650.4 1407.81   3
   7  -4  -4 15906.0 1505.11   1
   7  -4  -4 12038.8 1265.15   2
  -7   4  -4 12731.0 1438.54   4
   7  -4  -3 2091.32 650.599   1
   7  -4  -3 1123.80 543.878   2
  -7   4  -3 1595.55 553.766   3
  -7  -4  -2 7994.87 809.582   3
   7  -4  -2 5034.48 895.326   2
  -7   4  -2 7879.35 1072.90   3
   7  -4  -2 6005.61 992.722   1
   7  -4  -1 790.390 541.088   2
  -7  -4  -1 2263.67 527.260   3
  -7   4  -1 2176.17 687.712   3
   7  -4  -1 2563.07 708.391   1
   7  -4   0 426.666 472.279   2
  -7  -4   0 374.063 318.288   3
   7  -4   0 265.907 380.887   1
   7  -4   1 2338.09 742.850   2
   7   4   1 985.851 608.539   2
  -7   4   1 2619.82 767.165   3
   7  -4   1 2361.00 689.854   1
   7  -4   2 5929.89 1052.10   2
   7   4   2 7111.41 1059.81   2
  -7   4   2 7077.17 1100.04   3
   7  -4   2 7907.72 1185.10   1
   7  -4   3 1246.15 664.339   2
   7  -4   3 2877.86 798.245   1
   7   4   3 1820.93 683.765   2
  -7   4   3 2327.54 799.464   3
   7   4   4 13492.0 1393.51   2
   7  -4   4 15194.5 1636.15   1
  -7   4   4 14163.3 1645.86   3
   7  -4   4 14079.3 1623.99   2
   7  -4   5 1752.14 686.238   2
   7  -4   5 4569.51 991.392   1
   7   4   5 2573.54 756.324   2
  -7   4   5 2821.83 876.377   3
   7  -4   6 5330.79 1111.55   1
   7  -4   6 6512.29 1221.68   2
   7   4   6 5630.47 984.690   2
   7   4   6 5758.26 937.424   1
  -7   4   6 4422.74 1112.89   3
   7  -4   7 959.302 643.692   1
   7  -4   7 1131.31 611.218   2
   7   4   7 212.215 417.434   2
   7   4   7 389.497 504.153   1
  -7   4   7 321.978 619.897   3
   7  -4   8 1335.54 660.117   2
   7   4   8 675.153 453.401   2
  -7   4   8 2919.00 1064.47   3
   7  -4   8 2063.19 788.979   1
   7  -4   9-77.7934 640.493   2
  -7   4   9 1574.69 808.693   3
   7  -4   9 583.642 529.939   1
   7  -4  10-243.122 592.503   1
  -7   5  -9 17960.5 2031.55   4
  -7   5  -8 4436.70 1179.38   4
   7  -5  -7 26622.3 1890.21   1
  -7   5  -7 30534.7 2482.71   4
  -7   5  -6 4013.45 1050.27   4
  -7   5  -6 3553.57 841.506   3
   7  -5  -6 4030.43 785.090   2
   7  -5  -6 4188.48 841.571   1
   7  -5  -5 49160.2 2498.33   2
  -7   5  -5 49300.3 2690.74   3
   7  -5  -5 47515.2 2577.22   1
  -7   5  -5 52219.2 3089.74   4
  -7   5  -4 25229.4 1938.74   3
   7  -5  -4 22453.0 1825.76   1
   7  -5  -4 20988.1 1689.09   2
  -7   5  -4 21620.6 1997.06   4
  -7   5  -3 93364.8 3694.23   3
   7  -5  -3 87469.7 3557.30   1
   7  -5  -3 90369.4 3474.18   2
  -7   5  -2 13963.9 1492.97   3
   7  -5  -2 10380.0 1323.91   1
   7  -5  -2 11452.1 1331.47   2
  -7   5  -1 154939. 4823.20   3
   7  -5  -1 147135. 4717.76   1
   7  -5  -1 141256. 4477.92   2
   7  -5   0 45372.9 2678.72   1
  -7   5   0 44670.2 2734.06   3
   7  -5   0 46541.0 2668.49   2
   7  -5   1 149334. 4903.50   1
  -7   5   1 158177. 5106.83   3
   7  -5   1 148889. 4793.64   2
   7  -5   2 9994.05 1391.79   2
   7  -5   2 8938.30 1333.74   1
  -7   5   2 12905.6 1587.74   3
   7  -5   3 86181.3 3872.25   1
  -7   5   3 95445.1 4157.03   3
   7  -5   3 84216.0 3833.94   2
   7   5   4 21897.8 1811.67   2
   7  -5   4 21719.3 2036.12   1
  -7   5   4 24554.7 2175.34   3
   7  -5   4 20584.1 1993.91   2
   7   5   5 48822.6 2625.43   2
   7  -5   5 54711.9 3215.59   1
  -7   5   5 53139.1 3329.80   3
   7  -5   5 54208.0 3255.54   2
   7  -5   6 4814.65 1103.68   1
   7  -5   6 2403.70 895.116   2
   7   5   6 3805.06 825.163   2
  -7   5   6 3229.26 1018.86   3
   7   5   7 25639.6 1931.54   2
   7  -5   7 28509.3 2500.16   1
  -7   5   7 26689.7 2537.63   3
   7  -5   7 26405.6 2421.76   2
   7  -5   8 5840.02 1308.11   2
  -7   5   8 6036.93 1291.41   3
   7  -5   8 5974.00 1257.81   1
  -7   6  -7 1476.27 685.757   4
  -7   6  -6 3506.56 1037.57   4
   7  -6  -6 5787.71 949.294   1
  -7   6  -6 4906.56 1059.95   3
  -7   6  -5 1480.75 743.884   4
   7  -6  -5 1031.21 578.390   1
  -7   6  -5 1807.20 684.900   3
   7  -6  -4 1600.67 587.726   2
  -7   6  -4 1701.96 723.039   3
   7  -6  -3 2223.14 671.973   1
   7  -6  -3 1184.86 522.785   2
  -7   6  -3 1865.57 705.166   3
   7  -6  -2 407.359 509.959   1
   7  -6  -2 255.781 414.426   2
  -7   6  -2 9.42108 519.712   3
   7  -6  -1-343.395 605.384   1
   7  -6  -1 334.087 513.562   2
  -7   6  -1-636.103 708.685   3
   7  -6   0-191.498 610.378   1
   7  -6   0-194.147 592.141   2
  -7   6   0 58.9666 664.178   3
   7  -6   1-592.457 648.757   1
   7  -6   1-226.629 636.899   2
  -7   6   1-799.402 952.450   3
   7  -6   2 73.1588 481.924   1
   7  -6   2 685.250 580.893   2
  -7   6   2-177.858 687.390   3
   7  -6   3 683.579 529.208   1
   7  -6   3 1004.49 697.342   2
  -7   6   3 2246.97 927.165   3
   7  -6   4 2181.78 824.891   2
  -7   6   4 1976.98 915.247   3
   7  -6   4 1337.25 695.691   1
   7  -6   5 441.592 663.806   2
  -7   6   5 689.846 808.424   3
   7  -6   5 625.649 622.467   1
   7  -6   6 3655.30 1003.80   2
  -7   6   6 4072.76 1226.61   3
   7  -6   6 4425.07 1107.23   1
   7  -6   7 3291.79 1095.11   2
  -7   7  -6 495.620 632.318   3
  -7   7  -5 15118.3 1874.32   3
  -7   7  -5 18577.7 2171.97   4
   7  -7  -4 9616.57 1284.64   1
  -7   7  -4 6850.22 1385.03   3
   7  -7  -3 32098.7 2381.23   1
  -7   7  -3 33355.4 2706.83   3
   7  -7  -2 6138.31 1130.20   1
   7  -7  -2 7132.19 1109.20   2
  -7   7  -2 8113.82 1423.62   3
   7  -7  -1 47016.8 2988.27   1
  -7   7  -1 51266.6 3301.40   3
   7  -7  -1 41808.0 2654.18   2
   7  -7   0 18330.5 1928.99   1
  -7   7   0 20651.2 2160.09   3
   7  -7   0 17370.0 1835.70   2
   7  -7   1 46578.7 3056.26   1
  -7   7   1 45405.8 3184.85   3
   7  -7   1 42775.0 2850.57   2
   7  -7   2 11047.7 1534.48   2
  -7   7   2 8765.89 1462.39   3
   7  -7   2 9951.02 1496.72   1
   7  -7   3 30385.7 2605.06   1
  -7   7   3 31472.9 2802.53   3
   7  -7   3 25252.4 2408.63   2
   7  -7   4 8719.31 1458.08   2
  -7   7   4 8703.38 1527.85   3
   7  -7   4 8639.80 1472.48   1
   7  -7   5 22421.4 2328.17   2
  -7   8  -4 1390.30 599.373   3
  -7   8  -3 528.023 625.592   3
   7  -8  -3 1438.76 710.686   1
  -7   8  -2-401.256 1115.95   3
   7  -8  -2 902.614 671.893   1
  -7   8  -1 46.2051 998.928   3
   7  -8  -1 1473.21 620.874   1
   7  -8   0 1062.14 737.976   2
   7  -8   0 292.673 509.247   1
   7  -8   1 969.763 647.910   2
   7  -8   1 2181.86 721.222   1
   7  -8   2-82.2588 857.860   2
   7  -8   3-610.840 901.839   2
  -8   0  -9 34281.6 2143.62   4
  -8   0  -8 714.110 455.211   4
  -8   0  -7 68044.3 2606.69   4
  -8   0  -6 9376.09 947.658   4
  -8   0  -5 65661.0 2182.95   4
   8   0  -4 13019.3 1488.46   2
  -8   0  -4 12727.7 925.551   4
  -8   0  -3 128029. 2170.24   3
  -8   0  -3 128558. 2527.13   4
   8   0  -2 21622.7 1822.34   2
  -8   0  -2 21534.6 1163.37   3
  -8   0  -2 18518.3 889.314   4
   8   0  -1 123162. 4246.21   2
  -8   0  -1 125103. 3054.27   3
  -8   0  -1 125504. 2154.12   4
  -8   0   0-95.9877 203.002   4
   8   0   0 47.5555 520.368   2
   8   0   0 225.913 523.135   1
  -8   0   0 69.2864 371.988   3
  -8   0   1 116201. 3370.68   3
   8   0   1 118028. 4150.20   1
  -8   0   1 109463. 2059.90   4
   8   0   1 110039. 4004.09   2
  -8   0   2 23624.7 1658.58   3
   8   0   2 22929.8 1890.95   1
  -8   0   2 20350.1 971.142   4
   8   0   2 21410.5 1845.71   2
  -8   0   3 133916. 4044.49   3
   8   0   3 126152. 4364.93   1
  -8   0   3 127891. 2663.63   4
   8   0   3 127882. 4386.02   2
   8   0   4 10411.0 1328.53   2
   8   0   4 11551.5 1430.54   1
  -8   0   4 8176.89 1130.07   3
  -8   0   4 9705.74 834.500   4
  -8   0   5 64992.4 3149.99   3
   8   0   5 65252.3 3252.20   1
   8   0   5 67605.3 3336.52   2
   8   0   6 8369.82 1236.26   1
   8   0   6 7617.51 1280.82   2
  -8   0   6 5573.55 1085.87   3
   8   0   7 62776.0 3253.85   1
  -8   0   7 67831.3 3497.54   3
   8   0   7 65873.1 3465.05   2
   8   0   8 1688.59 802.641   2
  -8   0   8 1323.00 820.493   3
   8   0   8 947.169 631.967   1
   8   0   9 31362.6 2403.04   1
  -8   0   9 27721.6 2483.67   3
   8   0   9 32609.7 2562.73   2
   8   0  10 3651.95 993.076   2
   8   0  10 4265.36 929.037   1
  -8   0  10 3198.66 1034.92   3
   8   0  11 30238.0 2624.04   2
  -8   1 -11 1975.14 793.068   4
  -8   1 -10 1310.23 650.143   4
  -8   1  -9 3216.39 793.282   4
  -8   1  -8-194.324 433.249   4
  -8  -1  -7 117.702 267.043   4
  -8   1  -7 293.590 431.286   4
  -8  -1  -6 358.571 311.693   4
  -8   1  -6 773.139 411.428   4
  -8  -1  -5 557.323 271.802   4
  -8   1  -5 137.812 373.095   4
   8  -1  -5-178.369 561.898   2
  -8  -1  -4 225.566 192.500   4
  -8   1  -4 724.482 369.523   4
  -8   1  -4 304.419 206.166   3
   8  -1  -4 303.379 487.173   2
   8   1  -4 1072.11 568.633   2
   8  -1  -4 374.551 418.803   1
   8  -1  -3 744.633 581.723   1
  -8  -1  -3 195.638 111.131   4
  -8   1  -3 5.40355 355.900   4
   8  -1  -3 26.8578 400.008   2
  -8   1  -3 310.226 258.993   3
   8   1  -3 634.144 532.860   2
  -8  -1  -3 257.153 95.8394   3
  -8   1  -2 611.374 340.961   4
   8  -1  -2 580.757 501.794   2
   8   1  -2 1166.01 628.389   2
  -8   1  -2 780.600 374.568   3
  -8  -1  -2 167.377 178.056   3
   8  -1  -2 660.710 537.304   1
   8   1  -1 22726.2 1881.80   2
  -8   1  -1 22920.3 1434.60   3
  -8  -1  -1 23412.9 1275.13   3
   8  -1  -1 18638.1 1701.69   1
   8  -1  -1 20910.3 1797.47   2
  -8   1  -1 22969.9 1265.08   4
   8  -1   0 3685.40 842.222   2
   8   1   0 3617.85 831.945   2
   8  -1   0 3292.02 841.806   1
  -8   1   0 4020.96 662.083   3
  -8  -1   0 3639.52 591.982   3
  -8   1   1 24253.7 1645.67   3
  -8  -1   1 22412.9 1485.72   3
   8  -1   1 20825.2 1835.83   1
   8  -1   1 20992.3 1817.93   2
   8   1   1 24554.7 1958.15   2
   8   1   2 32.3980 479.558   1
   8  -1   2 237.995 506.812   2
   8   1   2 949.103 654.276   2
  -8   1   2 6.49481 400.052   3
  -8  -1   2 380.379 419.222   3
  -8   1   2 930.856 320.653   4
   8  -1   2 303.834 562.774   1
  -8   1   3 1074.16 350.956   4
  -8  -1   3 506.551 158.264   4
   8   1   3 317.873 471.908   1
   8  -1   3 825.089 643.733   2
   8   1   3 973.707 557.806   2
   8  -1   3 482.349 457.365   1
  -8   1   3 427.730 421.151   3
  -8  -1   3 513.608 437.492   3
  -8   1   4 779.264 358.748   4
   8  -1   4 1033.47 607.281   2
   8  -1   4 987.009 741.103   1
   8   1   4-135.214 485.108   1
   8   1   4 583.925 439.845   2
  -8   1   4 391.417 455.473   3
  -8  -1   4 577.530 566.555   3
   8  -1   5-570.480 641.295   1
   8  -1   5 448.742 547.189   2
   8   1   5 315.251 490.225   2
  -8   1   5-335.630 647.548   3
  -8  -1   5 658.108 572.634   3
   8   1   5 290.391 414.511   1
   8  -1   6 478.019 609.252   2
   8   1   6-213.577 429.754   2
   8   1   6 247.830 575.382   1
  -8   1   6 205.382 536.085   3
  -8  -1   6 671.118 601.593   3
   8  -1   6 555.587 519.459   1
   8   1   7-570.029 522.047   1
   8  -1   7-577.773 755.879   2
   8   1   7 581.042 649.910   2
  -8   1   7 947.347 689.721   3
   8  -1   7-63.6404 487.913   1
  -8  -1   7-84.6905 625.636   3
   8  -1   8 320.973 613.269   2
   8   1   8-275.959 592.031   2
   8  -1   8 42.8877 507.544   1
  -8   1   8-427.416 622.882   3
  -8  -1   8 1852.06 893.383   3
   8   1   8 260.742 441.228   1
   8  -1   9 4127.25 1029.53   2
   8   1   9 4184.43 981.888   2
   8  -1   9 3180.30 821.183   1
  -8   1   9 4517.47 1149.45   3
   8   1   9 4664.75 964.863   1
  -8  -1   9 4519.48 1105.18   3
   8  -1  10-420.241 792.242   1
   8  -1  10 1262.65 658.174   2
   8   1  10 675.733 585.728   2
   8   1  10 348.127 469.520   1
  -8   1  10 1348.53 855.776   3
  -8  -1  10 256.400 698.903   3
   8  -1  11 1837.33 776.157   1
   8   1  11 232.846 720.633   2
  -8   2 -11 33290.1 2641.87   4
  -8   2 -10 3540.88 911.649   4
   8  -2  -9 40493.0 2553.56   1
  -8   2  -9 44539.4 2697.51   4
  -8   2  -8 3527.10 833.630   4
   8  -2  -8 4483.51 939.292   1
   8  -2  -7 76915.0 3451.77   1
  -8   2  -7 81396.6 3262.05   4
   8  -2  -6 24657.9 1972.12   2
   8  -2  -6 26103.0 2008.26   1
  -8   2  -6 25111.6 1798.98   4
   8  -2  -5 74696.6 3347.07   2
   8  -2  -5 71899.0 3273.97   1
  -8   2  -5 79648.1 2981.59   4
   8  -2  -4 33209.0 2265.85   2
  -8   2  -4 36729.3 1626.29   3
   8  -2  -4 34081.9 2275.79   1
  -8   2  -4 30512.9 1811.71   4
   8  -2  -3 88742.0 3599.12   2
  -8   2  -3 95137.2 2802.35   3
   8  -2  -3 94734.8 3724.41   1
  -8   2  -3 89725.1 2970.39   4
   8   2  -2 30411.1 2210.21   2
  -8   2  -2 29916.9 1705.17   3
  -8  -2  -2 26283.7 1096.86   3
   8  -2  -2 27144.4 2078.53   1
   8  -2  -2 27590.5 2054.13   2
  -8   2  -2 29606.5 1709.60   4
   8   2  -1 70417.7 3291.88   2
  -8   2  -1 70901.0 2741.17   3
  -8  -2  -1 69679.2 2142.51   3
   8  -2  -1 70154.2 3241.55   1
   8  -2  -1 66565.8 3143.84   2
   8  -2   0-459.055 678.660   2
   8   2   0-289.577 534.181   2
  -8   2   0 98.9847 427.441   3
  -8  -2   0 231.614 299.482   3
   8  -2   0-46.8230 470.481   1
   8   2   1 64011.0 3131.25   2
  -8   2   1 65032.7 2838.40   3
   8  -2   1 66035.7 3190.38   1
   8  -2   1 61589.9 3123.55   2
   8   2   2 30242.5 2176.16   2
  -8   2   2 29721.6 2027.36   3
   8  -2   2 26358.1 2107.33   1
   8  -2   2 31431.0 2279.41   2
  -8   2   3 90212.3 3577.82   3
   8  -2   3 93301.6 3885.70   1
   8  -2   3 90903.4 3852.35   2
   8   2   3 88736.9 3660.72   2
  -8   2   4 32929.2 2294.52   3
   8  -2   4 38504.9 2561.64   1
   8   2   4 37576.0 2431.85   1
   8  -2   4 37149.2 2530.73   2
   8   2   4 31766.9 2268.05   2
   8  -2   5 75804.8 3624.92   1
  -8   2   5 75397.1 3549.92   3
   8   2   5 74622.5 3426.24   1
   8  -2   5 72710.4 3598.13   2
   8   2   5 68463.5 3281.16   2
   8  -2   6 27926.7 2285.96   1
  -8   2   6 27763.5 2278.40   3
   8   2   6 29775.4 2211.83   1
   8  -2   6 31603.0 2434.93   2
   8   2   6 26268.4 2093.18   2
   8  -2   7 81449.6 3922.57   1
  -8   2   7 84196.9 4031.33   3
   8   2   7 78794.1 3586.52   1
   8  -2   7 84751.2 4082.55   2
   8   2   7 80470.7 3655.87   2
   8   2   8 3991.61 879.226   1
   8  -2   8 4116.23 1082.74   2
   8  -2   8 3926.81 1035.13   1
   8   2   8 3517.46 907.786   2
  -8   2   8 5199.25 1142.51   3
   8  -2   9 42884.6 3015.45   1
   8   2   9 36591.6 2487.05   1
  -8   2   9 37086.4 2989.68   3
   8  -2   9 41339.6 3058.89   2
   8   2   9 39530.1 2720.83   2
   8  -2  10 3657.42 983.503   1
   8  -2  10 4127.46 1044.39   2
   8   2  10 4617.10 1086.56   2
   8  -2  11 29364.2 2593.66   1
   8   2  11 31849.7 2570.75   2
  -8   3 -11 1854.71 759.223   4
  -8   3 -10 284.193 508.581   4
  -8   3  -9 5418.75 1148.67   4
  -8   3  -8 1129.73 679.827   4
   8  -3  -8 2759.23 727.333   1
   8  -3  -7 19405.6 1777.88   1
  -8   3  -7 17268.4 1714.82   4
  -8   3  -6 1020.25 604.827   4
   8  -3  -6 1142.09 524.779   2
   8  -3  -6 1067.69 623.858   1
  -8   3  -5 6350.88 1013.66   4
  -8   3  -5 4574.05 684.645   3
   8  -3  -5 4206.43 887.838   2
   8  -3  -5 5235.09 1031.16   1
  -8   3  -4 2299.47 667.215   4
   8  -3  -4 3127.67 816.855   2
  -8   3  -4 3362.67 660.465   3
   8  -3  -4 1308.63 732.726   1
  -8   3  -3 13223.5 1217.65   3
   8  -3  -3 15009.1 1557.10   1
   8  -3  -3 12045.6 1404.02   2
  -8   3  -3 13548.0 1364.45   4
   8  -3  -2 4906.36 950.865   2
  -8  -3  -2 5661.71 600.023   3
   8  -3  -2 5362.69 1049.01   1
  -8   3  -2 4301.19 773.179   3
   8   3  -1 36083.2 2420.43   2
  -8   3  -1 37119.4 2167.47   3
   8  -3  -1 40374.0 2536.44   1
   8  -3  -1 35846.5 2368.30   2
   8  -3   0-194.633 511.902   1
   8  -3   0 1225.83 658.714   2
  -8  -3   0 138.605 250.076   3
   8   3   0-451.920 697.267   2
  -8   3   0-123.819 525.433   3
   8   3   1 38484.8 2479.16   2
  -8   3   1 40744.2 2416.40   3
   8  -3   1 34871.9 2390.73   1
   8  -3   1 38368.5 2489.45   2
   8  -3   2 4731.96 993.830   2
   8   3   2 5083.28 997.344   2
  -8   3   2 4872.83 965.951   3
   8  -3   2 3636.39 892.030   1
   8   3   3 12850.8 1475.29   2
  -8   3   3 12222.2 1478.29   3
   8  -3   3 12919.9 1547.63   1
   8  -3   3 13613.5 1590.65   2
   8  -3   4 3139.10 915.282   2
   8   3   4 3257.97 810.197   2
  -8   3   4 3695.03 957.791   3
   8  -3   4 2655.04 778.246   1
   8  -3   5 4602.38 1130.58   2
   8   3   5 4241.15 924.826   2
   8  -3   5 5034.56 1053.83   1
  -8   3   5 4897.33 1090.47   3
   8   3   5 4509.56 920.783   1
   8  -3   6 127.459 648.792   2
   8   3   6 705.462 488.595   2
   8  -3   6 1233.29 718.118   1
   8   3   6 2108.40 691.544   1
  -8   3   6 373.936 566.546   3
   8  -3   7 16036.3 1889.76   1
  -8   3   7 18867.6 2049.38   3
   8   3   7 19352.5 1830.54   1
   8  -3   7 16778.8 1934.66   2
   8   3   7 16187.6 1716.32   2
   8  -3   8 2124.14 731.723   1
   8  -3   8 980.825 704.718   2
   8   3   8 2227.89 834.468   2
   8   3   8 3662.02 857.239   1
  -8   3   8 995.997 709.709   3
   8  -3   9 6046.46 1210.34   1
   8  -3   9 7967.26 1470.38   2
   8   3   9 4739.72 960.431   2
  -8   3   9 6958.14 1384.63   3
   8  -3  10 2451.90 940.556   1
  -8   4  -9 18755.6 1987.87   4
  -8   4  -8 783.234 835.869   4
   8  -4  -7 41521.4 2539.39   1
  -8   4  -7 40070.5 2713.71   4
  -8   4  -6 9181.34 1323.28   4
   8  -4  -6 10168.5 1335.53   1
   8  -4  -6 7869.15 1181.45   2
   8  -4  -5 46001.5 2647.70   2
  -8   4  -5 40707.2 2225.89   3
   8  -4  -5 43699.7 2652.36   1
  -8   4  -5 40527.7 2583.74   4
   8  -4  -4 7585.97 1168.51   1
  -8   4  -4 9853.27 1298.97   4
   8  -4  -4 9764.25 1305.77   2
  -8   4  -4 8764.87 1108.98   3
  -8   4  -3 76687.8 3143.06   3
   8  -4  -3 70931.8 3353.69   1
   8  -4  -3 71684.5 3301.62   2
  -8   4  -2 34841.5 2186.15   3
   8  -4  -2 35044.5 2421.75   1
   8  -4  -2 34914.2 2352.00   2
  -8   4  -1 103550. 3856.19   3
   8  -4  -1 99425.0 4017.98   1
   8  -4  -1 97220.6 3916.60   2
   8  -4   0 1095.56 622.019   2
  -8   4   0 2444.71 803.463   3
   8  -4   0 3206.98 787.597   1
   8   4   1 94590.8 3893.95   2
  -8   4   1 91313.1 3849.49   3
   8  -4   1 101074. 4142.63   1
   8  -4   1 94947.2 3954.84   2
   8   4   2 31819.5 2321.71   2
   8  -4   2 33977.2 2490.00   1
  -8   4   2 32879.8 2428.67   3
   8  -4   2 36049.1 2546.20   2
   8   4   3 73620.6 3417.97   2
   8  -4   3 79130.2 3811.24   1
  -8   4   3 76713.1 3728.37   3
   8  -4   3 77794.0 3760.77   2
   8  -4   4 7016.39 1257.15   2
   8  -4   4 7260.86 1246.06   1
   8   4   4 8911.52 1273.21   2
  -8   4   4 9588.71 1511.74   3
   8   4   5 37066.0 2484.24   2
   8  -4   5 41585.9 2870.92   1
  -8   4   5 39976.5 2866.15   3
   8  -4   5 37621.2 2771.33   2
   8  -4   6 7207.38 1296.84   1
   8  -4   6 7118.99 1376.25   2
   8   4   6 9130.03 1312.70   1
   8   4   6 8675.20 1251.95   2
  -8   4   6 8331.86 1460.77   3
   8   4   7 39773.0 2586.91   2
   8  -4   7 41966.8 3043.42   1
  -8   4   7 42512.3 3184.71   3
   8   4   7 42350.9 2627.02   1
   8  -4   7 44063.4 3144.60   2
   8  -4   8 1608.71 786.188   1
   8   4   8 1132.55 537.260   2
  -8   4   8 575.930 624.197   3
  -8   5  -8-322.703 646.734   4
  -8   5  -7 1170.90 707.997   4
  -8   5  -6 1085.37 766.432   4
   8  -5  -6 2040.37 713.145   1
  -8   5  -5 682.609 687.944   4
  -8   5  -5 250.642 384.678   3
   8  -5  -5-32.3243 350.408   2
   8  -5  -5-5.81151 487.735   1
  -8   5  -4 1647.90 791.154   4
   8  -5  -4 1601.90 507.148   2
  -8   5  -4 1254.84 653.068   3
   8  -5  -4 1395.29 615.718   1
   8  -5  -3 4441.70 904.119   2
  -8   5  -3 4580.15 976.474   3
   8  -5  -3 3793.26 988.718   1
   8  -5  -2-1169.53 631.696   2
  -8   5  -2-399.402 672.709   3
   8  -5  -2-98.4260 606.974   1
   8  -5  -1 354.186 550.790   2
  -8   5  -1 523.444 571.347   3
   8  -5  -1 822.159 503.294   1
   8  -5   0 337.303 428.730   2
   8  -5   0-193.857 612.685   1
  -8   5   0 819.164 667.783   3
   8  -5   1 575.222 684.909   2
   8  -5   1 508.051 541.695   1
  -8   5   1 331.446 633.567   3
   8  -5   2 538.725 519.888   2
   8  -5   2 1112.58 601.564   1
  -8   5   2 51.4596 753.374   3
   8  -5   3 4541.47 1038.43   2
   8  -5   3 2831.47 865.229   1
  -8   5   3 3824.13 1030.72   3
   8  -5   4 2010.12 803.690   1
   8  -5   4 1284.05 767.122   2
   8   5   4 469.643 466.478   2
  -8   5   4 1046.98 732.540   3
   8  -5   5 163.375 558.790   1
   8  -5   5-42.0802 676.023   2
   8   5   5-190.804 526.554   2
  -8   5   5 504.190 741.275   3
   8  -5   6 1052.35 629.453   1
   8  -5   6 1302.43 799.709   2
   8   5   6 1175.20 555.267   2
  -8   5   6 882.768 738.145   3
   8   5   6 1506.67 682.130   1
   8   5   7 1291.23 602.685   2
  -8   5   7 1982.38 1022.67   3
  -8   6  -6 2551.83 938.141   4
  -8   6  -5 26989.9 2233.57   3
   8  -6  -5 26009.1 2121.03   1
  -8   6  -5 30260.8 2635.53   4
  -8   6  -4 844.603 787.703   4
   8  -6  -4 503.703 659.865   1
   8  -6  -4 1009.00 566.032   2
  -8   6  -4 1523.27 816.755   3
   8  -6  -3 38625.0 2683.28   1
  -8   6  -3 41831.5 2813.25   3
   8  -6  -3 35666.2 2425.31   2
   8  -6  -2 6718.83 1255.17   1
   8  -6  -2 7015.30 1146.44   2
  -8   6  -2 3814.44 1050.57   3
   8  -6  -1 46739.2 2991.56   1
  -8   6  -1 43434.4 2927.75   3
   8  -6  -1 43585.2 2799.95   2
   8  -6   0 72.5105 545.774   1
   8  -6   0-812.214 842.397   2
  -8   6   0 1249.88 854.166   3
   8  -6   1 41828.2 2944.83   1
  -8   6   1 46703.4 3189.27   3
   8  -6   1 46797.2 2990.45   2
   8  -6   2 5271.76 1156.81   1
   8  -6   2 5090.96 1159.49   2
  -8   6   2 5798.68 1305.88   3
   8  -6   3 39862.1 2932.84   1
  -8   6   3 41293.4 3128.19   3
   8  -6   3 38454.8 2862.95   2
   8  -6   4 680.384 638.099   1
   8  -6   4 140.684 782.218   2
  -8   6   4 879.008 769.929   3
  -8   6   5 26064.5 2630.77   3
   8  -6   5 26359.5 2527.55   2
   8  -7  -4-953.647 882.986   1
  -8   7  -4-175.902 792.589   3
   8  -7  -3 555.609 544.711   1
  -8   7  -3 1153.07 650.764   3
   8  -7  -2 416.930 382.313   2
  -8   7  -2 837.827 731.327   3
   8  -7  -1-283.821 855.395   1
   8  -7  -1 39.1953 549.801   2
  -8   7  -1-795.448 958.848   3
   8  -7   0 600.215 574.300   2
  -8   7   0 738.239 891.800   3
   8  -7   1 189.882 445.982   1
   8  -7   1 1008.09 598.587   2
  -8   7   1 1033.62 806.002   3
   8  -7   2 991.591 534.895   2
  -8   7   2 894.074 680.527   3
   8  -7   3 1472.89 696.681   2
   8  -8   1 25781.3 2374.69   2
   9   0  -4 25.8293 530.960   2
   9   0  -3 942.722 688.169   2
   9   0  -2 3.13256 654.115   2
  -9   0  -2 175.131 278.966   3
   9   0  -1 744.919 596.818   1
   9   0  -1-6.21895 588.299   2
  -9   0  -1-582.755 374.704   3
   9   0   0 115.083 464.953   1
  -9   0   0 90.4321 314.858   3
   9   0   1 192.279 484.484   2
  -9   0   1-12.3195 386.594   3
   9   0   1-280.855 527.766   1
   9   0   2 261.674 537.211   1
   9   0   2 18.8371 549.345   2
  -9   0   2 673.589 474.426   3
   9   0   3-76.7918 499.783   1
   9   0   3-227.218 620.951   2
  -9   0   3 315.666 411.537   3
   9   0   4 154.315 574.258   2
  -9   0   4-277.129 467.446   3
   9   0   4-88.3418 569.128   1
   9   0   5-803.201 699.092   2
   9   0   5 170.200 555.677   1
  -9   0   5-82.0661 501.394   3
   9   0   6-337.122 612.656   1
   9   0   6-370.811 634.172   2
  -9   0   6 259.169 640.932   3
   9   0   7-112.747 595.925   2
  -9   0   7-83.0887 796.041   3
   9   0   7-1030.83 563.731   1
   9   0   8 1170.99 717.267   2
  -9   0   8-58.8287 725.509   3
   9   0   8-552.233 667.359   1
   9   0   9 478.912 658.138   1
  -9   0   9 16.9315 628.992   3
   9   0  10 180.333 446.199   1
   9  -1  -6 262.754 765.648   1
   9  -1  -5 47935.7 2964.33   2
   9  -1  -5 50981.0 3063.92   1
  -9   1  -5 52782.9 2198.58   4
  -9   1  -4 1119.79 400.801   4
   9  -1  -4 2115.49 775.578   1
   9  -1  -4 1598.20 774.774   2
   9  -1  -3 66298.1 3414.88   2
   9   1  -3 70920.4 3565.92   2
   9  -1  -3 69481.1 3460.89   1
  -9   1  -3 71662.5 2315.51   4
   9  -1  -2 3522.59 931.309   1
  -9   1  -2 2822.05 510.056   4
   9  -1  -2 3173.04 873.326   2
   9   1  -2 2708.81 871.947   2
  -9   1  -2 3784.55 665.074   3
   9   1  -1 113656. 4444.29   2
  -9   1  -1 120585. 3463.70   3
  -9  -1  -1 119638. 2993.92   3
   9  -1  -1 119942. 4520.74   1
  -9   1  -1 118429. 2829.33   4
   9  -1  -1 119565. 4503.34   2
   9  -1   0 2817.59 882.580   1
   9  -1   0 2546.96 905.077   2
   9   1   0 1611.40 699.204   2
  -9   1   0 2349.32 649.793   3
  -9  -1   0 2266.49 562.230   3
   9   1   1 110435. 4376.68   2
  -9   1   1 114188. 3770.45   3
  -9  -1   1 112888. 3489.91   3
   9  -1   1 119526. 4548.16   1
   9   1   1 115424. 4489.79   1
   9  -1   1 114407. 4424.99   2
   9  -1   2 3286.67 975.199   2
   9   1   2 2503.76 809.910   2
   9   1   2 3446.93 988.890   1
  -9   1   2 4400.48 862.551   3
  -9  -1   2 4029.20 833.381   3
   9  -1   2 3571.60 950.482   1
  -9   1   3 71229.2 3268.78   3
  -9  -1   3 72122.6 3148.19   3
   9  -1   3 66977.8 3501.20   1
   9   1   3 66951.4 3490.77   1
   9  -1   3 74342.4 3699.62   2
   9   1   3 69506.7 3518.78   2
   9   1   4 1682.66 683.089   1
   9  -1   4 1084.38 590.527   1
   9  -1   4 2377.97 803.266   2
   9   1   4 1785.54 659.005   2
  -9   1   4 1562.54 704.773   3
  -9  -1   4 2819.44 851.663   3
  -9   1   5 45877.4 2895.88   3
   9  -1   5 50531.0 3146.86   1
  -9  -1   5 48952.2 2893.07   3
   9   1   5 46391.2 2963.31   1
   9  -1   5 52120.4 3168.95   2
   9   1   5 50294.4 3027.47   2
   9  -1   6-134.568 575.405   2
   9   1   6 183.941 536.801   2
   9   1   6 160.767 486.673   1
  -9   1   6-353.727 659.381   3
  -9  -1   6-171.448 767.316   3
   9  -1   6 447.686 561.777   1
   9   1   7 12285.3 1593.63   1
   9  -1   7 15866.0 1839.23   1
  -9   1   7 14443.2 1806.30   3
  -9  -1   7 17038.4 1932.19   3
   9  -1   7 19708.4 2083.91   2
   9   1   7 15153.5 1763.91   2
   9  -1   8 1758.22 803.572   2
   9   1   8-29.2021 577.065   2
   9  -1   8 2012.16 789.515   1
  -9   1   8-88.2074 709.471   3
  -9  -1   8 1301.04 779.109   3
   9   1   8 259.574 614.229   1
   9  -1   9 31864.2 2663.22   1
   9   1   9 29606.9 2481.97   1
   9   1   9 33826.6 2701.60   2
   9  -1  10-2492.24 1035.09   1
   9   1  10 3341.81 926.688   2
   9  -2  -9-437.594 833.511   1
   9  -2  -8 793.833 670.649   1
  -9   2  -7 2685.04 708.379   4
   9  -2  -7 1944.21 831.302   1
  -9   2  -6 984.756 478.805   4
   9  -2  -6-1005.16 623.016   2
   9  -2  -6-277.418 642.716   1
  -9   2  -5 278.127 407.097   4
   9  -2  -5 180.339 488.898   1
   9  -2  -5 596.385 611.336   2
  -9   2  -4 1893.03 532.647   4
   9  -2  -4 1531.38 694.685   1
   9  -2  -4 2478.03 854.039   2
  -9   2  -3 2621.00 588.232   4
   9  -2  -3 3397.09 885.731   1
   9  -2  -3 1890.05 737.131   2
   9  -2  -2 8870.10 1324.32   1
  -9   2  -2 7217.41 890.447   4
   9  -2  -2 5867.54 1113.93   2
   9   2  -2 5374.13 1099.11   2
  -9   2  -2 7525.72 942.914   3
   9  -2  -1-21.9360 507.778   2
   9   2  -1 29.0750 637.759   2
  -9   2  -1 793.478 472.564   3
  -9  -2  -1 90.3340 328.111   3
   9  -2  -1 841.026 608.315   1
   9  -2   0 1349.41 669.409   2
   9   2   0 1761.93 721.846   2
  -9   2   0 2644.14 692.341   3
  -9  -2   0 1643.40 515.070   3
   9  -2   0 1066.28 598.217   1
   9  -2   1 1274.38 690.282   2
   9   2   1 941.571 621.701   2
   9  -2   1 373.299 546.657   1
  -9   2   1 235.154 494.069   3
  -9  -2   1 618.568 450.239   3
   9  -2   2 7513.15 1226.72   1
   9  -2   2 7419.11 1247.75   2
   9   2   2 5838.16 1119.03   2
  -9   2   2 7178.43 1113.33   3
  -9  -2   2 7838.40 1049.03   3
   9  -2   3 3361.60 934.112   1
   9  -2   3 2902.44 946.850   2
   9   2   3 3154.47 921.961   1
   9   2   3 2954.11 912.768   2
  -9   2   3 1972.07 705.485   3
  -9  -2   3 2689.88 714.962   3
   9  -2   4 1075.63 567.413   2
   9   2   4 2891.97 799.815   2
  -9   2   4 2497.13 859.011   3
   9   2   4 1841.78 778.566   1
   9  -2   4 2005.34 834.307   1
   9   2   5-277.753 658.657   1
   9  -2   5 622.573 552.131   2
   9   2   5 698.933 701.351   2
  -9   2   5 871.500 614.709   3
   9  -2   5-134.615 572.127   1
   9  -2   6 293.633 487.701   2
   9   2   6 1407.84 740.473   2
  -9   2   6 173.397 684.517   3
   9  -2   6 1338.30 683.798   1
   9   2   6 345.570 518.500   1
   9  -2   7 1139.50 841.032   2
   9   2   7 3041.63 838.507   2
   9   2   7 934.967 657.079   1
   9  -2   7 2088.74 902.892   1
  -9   2   7 1722.56 784.018   3
   9   2   8 773.734 601.711   1
   9  -2   8 1395.01 742.742   2
   9   2   8 2131.48 624.421   2
   9  -2   8 785.468 619.937   1
  -9   2   8 1212.20 791.699   3
   9  -2   9 1464.08 729.249   1
   9   2   9 1853.57 631.243   2
   9   2  10 1364.22 742.494   2
  -9   3  -9 33363.6 2491.26   4
  -9   3  -8-217.214 719.854   4
   9  -3  -8-243.276 807.839   1
   9  -3  -7 42970.1 2865.49   1
  -9   3  -7 40418.4 2563.45   4
  -9   3  -6 639.780 504.213   4
   9  -3  -6 2272.36 808.573   2
   9  -3  -6 435.775 618.913   1
   9  -3  -5 76044.7 3713.80   2
   9  -3  -5 77006.9 3767.16   1
  -9   3  -5 78180.8 3341.94   4
  -9   3  -4 3031.34 727.552   4
   9  -3  -4 1875.25 654.889   2
   9  -3  -4 3875.29 1032.33   1
   9  -3  -3 55716.3 3142.11   2
  -9   3  -3 53923.0 2477.45   3
   9  -3  -3 53303.0 3113.02   1
  -9   3  -3 59358.9 2785.40   4
  -9   3  -2 1510.99 615.942   4
   9  -3  -2 701.493 614.095   2
   9  -3  -2 1124.83 714.313   1
  -9   3  -2 870.143 567.332   3
   9   3  -1 79932.4 3829.51   2
  -9   3  -1 80012.9 3320.98   3
   9  -3  -1 76910.0 3722.98   1
   9  -3  -1 83877.5 3833.32   2
   9  -3   0 2345.60 852.702   1
   9  -3   0 3119.05 913.339   2
   9   3   0 1649.07 656.605   2
  -9   3   0 1675.06 694.365   3
   9   3   1 73112.1 3657.78   2
  -9   3   1 75388.6 3451.37   3
   9  -3   1 75244.6 3739.53   1
   9  -3   1 79619.1 3823.39   2
   9  -3   2 1244.92 674.607   2
   9   3   2 1490.97 719.788   2
  -9   3   2 761.649 592.836   3
   9  -3   2 1464.54 800.951   1
   9   3   3 52923.8 3091.91   2
  -9   3   3 53116.2 3119.88   3
   9  -3   3 55834.8 3311.59   1
   9  -3   3 54688.2 3282.28   2
   9  -3   4 2910.30 904.268   2
   9   3   4 3526.20 991.238   2
  -9   3   4 3195.74 1078.80   3
   9  -3   4 2845.38 950.872   1
   9   3   4 1718.50 773.907   1
   9   3   5 72264.1 3678.82   2
   9  -3   5 79798.6 4076.48   1
  -9   3   5 74870.8 3932.60   3
   9   3   5 77860.7 3797.17   1
   9  -3   5 77243.5 4051.38   2
   9   3   6 112.771 583.409   1
   9  -3   6 404.996 585.334   2
   9   3   6 359.775 649.402   2
   9  -3   6 69.3916 697.381   1
  -9   3   6 1810.39 908.916   3
   9  -3   7 44270.9 3210.30   1
  -9   3   7 44545.0 3248.00   3
   9   3   7 40714.2 2834.07   1
   9  -3   7 45540.8 3293.43   2
   9   3   7 43826.2 2890.81   2
   9   3   8-476.038 895.175   1
   9   3   8 682.329 632.941   2
   9   3   9 30700.2 2493.21   2
  -9   4  -8 1092.69 872.359   4
  -9   4  -7 1394.05 671.010   4
   9  -4  -7 1220.57 648.148   1
  -9   4  -6 1412.50 767.609   4
   9  -4  -6 3011.44 842.538   1
   9  -4  -6 2779.03 807.523   2
  -9   4  -5 984.509 604.143   4
   9  -4  -5 266.347 711.837   1
   9  -4  -5 2271.56 809.388   2
   9  -4  -4 4432.30 1110.37   1
  -9   4  -4 2950.33 832.244   4
   9  -4  -4 3281.36 925.580   2
   9  -4  -3-224.776 655.307   1
  -9   4  -3 82.8785 559.826   4
   9  -4  -3 426.744 514.101   2
  -9   4  -3 425.861 519.890   3
   9  -4  -2 1473.15 707.754   2
  -9   4  -2 1840.29 668.754   3
   9  -4  -2 986.325 635.570   1
   9  -4  -1 2696.63 890.676   2
  -9   4  -1 1595.10 695.556   3
   9  -4  -1 2472.32 807.239   1
   9  -4   0-100.554 454.473   2
   9  -4   0 1107.96 693.454   1
   9  -4   1 1060.09 753.152   2
   9   4   1 1143.58 680.144   2
  -9   4   1 1706.00 733.953   3
   9  -4   1 458.715 567.536   1
   9  -4   2 2219.60 785.146   2
   9   4   2 2968.80 882.147   2
  -9   4   2 1565.92 812.524   3
   9  -4   2 1679.56 828.657   1
   9  -4   3 245.495 645.504   2
   9   4   3-53.2513 648.243   2
  -9   4   3-527.064 811.866   3
   9  -4   3 1260.07 718.860   1
   9  -4   4 3216.07 972.140   2
   9  -4   4 3239.81 899.862   1
   9   4   4 3817.86 973.212   2
  -9   4   4 3420.32 1020.24   3
   9  -4   5 138.656 579.617   2
   9  -4   5 1271.15 594.716   1
   9   4   5 220.236 537.361   2
   9   4   5 348.372 476.492   1
  -9   4   5 931.647 766.245   3
   9  -4   6 3400.28 1057.47   1
   9   4   6 1382.79 582.787   2
  -9   4   6 1249.72 877.552   3
   9   4   6 4036.42 935.758   1
   9   4   7-103.706 678.993   1
   9   4   7 1205.91 710.468   2
   9   4   8 942.280 537.550   2
  -9   5  -7 25781.3 2417.13   4
  -9   5  -6 466.071 692.271   4
   9  -5  -6 2462.70 664.450   1
   9  -5  -5 36372.2 2568.07   2
   9  -5  -5 28142.9 2386.76   1
  -9   5  -5 32734.9 2643.28   4
  -9   5  -4 3216.91 962.572   4
   9  -5  -4 1680.21 777.535   2
   9  -5  -4 1620.91 667.967   1
  -9   5  -3 18195.7 1798.25   3
   9  -5  -3 18485.7 1973.00   1
   9  -5  -3 22377.5 2104.01   2
  -9   5  -3 19999.8 2033.51   4
   9  -5  -2 1207.35 682.802   2
  -9   5  -2 2803.72 853.655   3
   9  -5  -2 4345.00 1008.22   1
  -9   5  -1 27845.1 2286.69   3
   9  -5  -1 30105.2 2505.98   1
   9  -5  -1 30638.4 2475.65   2
   9  -5   0 2102.75 789.533   2
  -9   5   0 3583.42 987.881   3
   9  -5   0 1484.02 705.368   1
   9  -5   1 31123.8 2568.66   1
  -9   5   1 26995.3 2397.89   3
   9  -5   1 32214.6 2633.95   2
   9  -5   2 2531.78 814.830   2
   9  -5   2 2177.39 875.030   1
  -9   5   2 2642.28 1058.07   3
   9  -5   3 20613.3 2174.40   1
  -9   5   3 17273.1 2040.41   3
   9  -5   3 22269.9 2277.92   2
   9  -5   4 867.861 770.017   2
   9   5   4 2976.21 910.534   2
  -9   5   4 3599.01 1054.13   3
   9   5   5 34315.5 2578.11   2
  -9   5   5 30262.9 2857.60   3
   9   5   6 287.844 589.860   2
   9   5   6 988.985 642.434   1
   9  -6  -5-352.517 528.606   1
  -9   6  -4-2668.18 1107.61   4
   9  -6  -4 421.342 503.428   1
   9  -6  -3 1088.77 529.851   1
   9  -6  -3 320.020 582.689   2
  -9   6  -3-287.407 808.283   3
   9  -6  -2 1189.69 556.434   1
   9  -6  -2 446.190 413.199   2
   9  -6  -1 1000.76 638.576   1
   9  -6  -1 165.874 472.997   2
  -9   6  -1 215.595 650.109   3
   9  -6   0-30.9221 496.557   1
  -9   6   0 582.326 586.729   3
   9  -6   1 7.57875 630.130   2
  -9   6   1 356.599 730.629   3
   9  -6   2-463.882 814.297   2
  -9   6   2-439.287 958.338   3
  -9   6   3 2480.82 946.006   3
  -9   7  -2 927.711 832.896   3
   9  -7  -1 13904.6 1696.35   2
  -9   7  -1 17131.8 2091.10   3
   9  -7   0-409.490 634.714   2
  10   0  -4 2333.58 926.812   2
  10   0  -3 86379.6 4180.38   2
  10   0  -3 89106.6 4268.45   1
  10   0  -2 719.345 687.153   1
  10   0  -2 872.309 810.925   2
  10   0  -1 115111. 4756.29   2
  10   0  -1 100865. 4517.03   1
  10   0   0 2333.52 881.093   2
  10   0   0 1767.04 903.761   1
 -10   0   1 107244. 3709.59   3
  10   0   1 103777. 4580.73   1
  10   0   1 108139. 4619.11   2
  10   0   2 872.083 731.220   1
  10   0   2 825.354 703.964   2
 -10   0   2 190.767 470.204   3
 -10   0   3 91247.4 3784.04   3
  10   0   3 89459.1 4320.15   1
  10   0   3 94923.8 4387.92   2
  10   0   4 4534.98 1104.33   2
  10   0   4 3656.57 979.873   1
 -10   0   4 3457.81 957.658   3
 -10   0   5 16401.2 1829.35   3
  10   0   5 15329.3 1901.06   2
  10   0   5 16950.8 1992.80   1
  10   0   6 710.225 640.847   1
  10   0   6 1298.68 618.990   2
 -10   0   6-836.212 930.158   3
 -10   0   7 15722.3 1965.32   3
  10   0   7 15102.6 1918.09   1
  10   0   8 2679.07 1081.13   1
  10  -1  -8-193.257 678.046   1
  10  -1  -7-64.6554 551.668   1
  10  -1  -6 1003.62 732.629   1
  10  -1  -5 99.6913 594.716   1
  10  -1  -5 765.361 769.918   2
  10  -1  -4 4011.16 1035.03   1
  10  -1  -4 5586.01 1233.78   2
  10  -1  -3 1549.23 682.673   2
  10   1  -3 2852.23 853.810   2
  10  -1  -3 1071.32 742.621   1
  10  -1  -2 6580.87 1262.54   2
  10   1  -2 6154.00 1259.85   2
  10  -1  -2 5754.37 1167.18   1
  10  -1  -1 126.202 518.057   1
  10  -1  -1 705.634 706.595   2
  10   1  -1 50.7983 540.562   2
  10  -1   0-14.4658 780.530   1
  10  -1   0 1413.37 749.253   2
  10   1   0 829.342 458.948   2
 -10   1   0 403.648 499.141   3
  10   1   0-343.224 642.083   1
  10  -1   1-355.178 538.637   2
  10   1   1 381.638 551.082   2
 -10   1   1 35.1475 449.625   3
  10   1   1 302.594 679.124   1
 -10  -1   1 431.335 350.164   3
  10  -1   1-513.279 842.644   1
  10  -1   2 8214.80 1360.50   2
  10   1   2 5908.51 1165.29   2
 -10   1   2 6333.23 1049.52   3
 -10  -1   2 5989.57 970.699   3
  10  -1   2 7179.54 1311.04   1
  10   1   2 8154.25 1300.21   1
  10   1   3 3177.57 989.266   1
  10  -1   3 2300.54 849.524   2
  10   1   3 2429.78 938.013   2
  10  -1   3 1197.07 668.015   1
 -10   1   3 2103.95 747.416   3
 -10  -1   3 2538.57 786.415   3
  10   1   4 4618.50 1073.53   1
  10  -1   4 3899.36 1095.23   1
  10  -1   4 3781.67 994.263   2
  10   1   4 5097.65 1134.11   2
 -10   1   4 4058.47 914.223   3
 -10  -1   4 3970.13 950.577   3
  10  -1   5 625.235 571.649   1
  10  -1   5 707.767 673.418   2
  10   1   5-22.7086 604.501   2
 -10   1   5 935.928 672.044   3
 -10  -1   5 1222.11 769.209   3
  10   1   5 1252.39 758.785   1
  10  -1   6 2635.65 862.305   2
  10   1   6 1075.20 773.972   2
  10   1   6 670.604 615.159   1
 -10   1   6 916.125 793.794   3
 -10  -1   6-639.295 867.397   3
  10  -1   6 1641.35 912.486   1
  10   1   7 558.692 548.572   1
  10   1   7-562.827 795.021   2
 -10   1   7-296.384 715.214   3
 -10  -1   7-3.94469 648.958   3
  10  -1   7-1543.31 785.809   1
  10   1   8-2774.32 1004.42   1
  10  -2  -8 417.148 720.269   1
  10  -2  -7 51289.1 3342.62   1
  10  -2  -6 579.915 625.414   1
  10  -2  -6-333.113 750.014   2
  10  -2  -5 33576.4 2679.05   2
  10  -2  -5 37705.4 2813.22   1
  10  -2  -4 3841.48 1055.96   1
  10  -2  -4 2946.48 861.289   2
  10  -2  -3 42117.2 2948.84   2
  10  -2  -3 45966.5 3086.56   1
  10  -2  -2 722.538 623.135   2
  10   2  -2 1449.80 669.682   2
  10  -2  -2 1088.67 700.734   1
  10   2  -1 32005.6 2587.61   2
  10  -2  -1 30274.5 2539.11   1
  10  -2  -1 30202.1 2497.70   2
  10  -2   0-87.8039 796.372   2
  10   2   0-304.169 721.505   2
 -10   2   0 504.599 599.844   3
  10  -2   0 794.371 690.807   1
  10   2   1 30801.7 2527.42   2
 -10   2   1 29056.4 2161.54   3
  10  -2   1 27461.1 2452.39   1
  10  -2   1 31833.0 2606.17   2
  10  -2   2 820.551 674.857   1
  10  -2   2 2403.22 912.254   2
  10   2   2 1215.32 768.135   2
 -10   2   2 1848.93 825.616   3
 -10  -2   2 1211.62 524.279   3
  10   2   2 1288.17 721.148   1
  10   2   3 41164.7 2947.62   2
 -10   2   3 42255.3 2838.84   3
  10  -2   3 47704.3 3236.78   1
 -10  -2   3 42786.5 2606.39   3
  10   2   3 45234.6 3103.03   1
  10  -2   3 41887.2 3025.02   2
  10  -2   4 3393.44 1047.90   2
  10   2   4 2249.98 954.261   2
  10   2   4 1688.64 908.115   1
 -10   2   4 1964.01 887.617   3
 -10  -2   4 3660.47 938.070   3
  10  -2   4 1916.48 885.104   1
  10  -2   5 30483.4 2658.06   1
 -10   2   5 37422.6 2888.20   3
 -10  -2   5 34415.2 2598.43   3
  10   2   5 34420.9 2783.88   1
  10  -2   5 36801.6 2936.20   2
  10   2   5 35345.9 2766.99   2
  10   2   6 1733.64 685.376   2
 -10   2   6 147.625 824.242   3
  10  -2   6 862.415 678.865   1
 -10  -2   6 483.718 695.530   3
  10   2   6 1751.97 849.083   1
 -10   2   7 51756.8 3568.10   3
 -10  -2   7 48872.0 3336.49   3
  10   2   7 44929.2 3195.63   1
  10   2   7 47129.0 3306.44   2
  10   2   8 1067.47 721.838   1
  10  -3  -7 801.757 751.622   1
  10  -3  -6 1583.65 785.704   2
  10  -3  -6-88.9384 910.086   1
  10  -3  -5 65.9162 895.448   2
  10  -3  -5 122.088 474.785   1
  10  -3  -4-10.9832 416.105   2
  10  -3  -4 310.606 478.855   1
  10  -3  -3-95.3050 624.071   2
  10  -3  -3 1126.33 642.872   1
  10  -3  -2 970.977 587.183   1
  10  -3  -2 240.578 493.049   2
  10  -3  -1 5294.89 1191.97   1
  10  -3  -1 7223.67 1282.68   2
  10   3  -1 5460.57 1229.91   2
  10  -3   0 348.287 699.843   1
  10  -3   0-515.925 630.157   2
  10   3   0 851.042 547.085   2
 -10   3   0-52.0404 535.097   3
  10  -3   1 5825.30 1248.42   1
  10  -3   1 6061.52 1289.19   2
  10   3   1 6336.83 1227.87   2
 -10   3   1 6045.27 1135.83   3
  10  -3   2 931.576 565.586   2
  10   3   2 468.377 644.337   2
 -10   3   2 674.398 714.274   3
  10  -3   2 3.89891 562.470   1
  10  -3   3-102.746 671.521   2
  10   3   3-56.9991 536.885   1
 -10   3   3 985.002 604.198   3
 -10  -3   3 297.575 459.080   3
  10  -3   3 740.567 709.078   1
  10   3   4-178.386 804.703   1
  10  -3   4-240.812 717.004   2
  10   3   4-483.149 621.036   2
 -10   3   4-247.790 660.232   3
  10  -3   4-192.723 611.591   1
  10   3   5-317.559 691.720   2
  10   3   5 1554.29 718.017   1
 -10   3   5-83.7968 871.893   3
  10   3   6 129.984 584.724   1
  10   3   6-114.932 532.378   2
 -10   3   6 1486.71 852.661   3
  10   3   7 1524.36 802.357   2
  10   3   7-65.5666 624.740   1
  10  -4  -6 974.629 694.639   1
  10  -4  -6 2015.11 839.842   2
  10  -4  -5 25379.2 2335.77   2
  10  -4  -5 25975.9 2408.20   1
  10  -4  -4 2279.73 851.336   1
  10  -4  -4 2171.54 854.648   2
  10  -4  -3 36114.5 2776.49   2
  10  -4  -3 36027.8 2778.99   1
 -10   4  -2 722.835 758.514   4
  10  -4  -2 1458.58 784.982   1
  10  -4  -1 49226.0 3255.14   1
  10  -4  -1 44660.8 3096.87   2
  10  -4   0 194.582 638.952   2
 -10   4   0-2155.40 852.577   3
  10  -4   0-113.620 756.309   1
 -10   4   1 44559.5 3028.49   3
  10  -4   1 46518.9 3280.31   1
  10  -4   2 159.448 542.797   2
  10   4   2 1063.90 554.962   2
 -10   4   2-624.971 1019.09   3
  10   4   3 34354.3 2812.65   2
 -10   4   3 33786.7 2809.83   3
  10   4   4 2520.49 924.770   1
  10   4   4 2748.80 908.553   2
 -10   4   4 1926.77 866.398   3
  10   4   5 24319.0 2350.85   2
 -10   4   5 21628.2 2390.66   3
  10   4   5 24147.0 2357.97   1
  10   4   6 2202.87 879.219   1
  10   4   6 1529.22 787.714   2
 -10   5  -4 4292.56 1096.39   4
  10  -5  -4 3035.39 887.192   2
 -10   5  -3 1667.71 793.629   4
  10  -5  -3 1279.51 654.584   2
  10  -5  -2 418.258 633.238   2
  10  -5  -1 1075.41 457.001   2
  10  -5   0-2228.28 944.194   2
 -10   5   0 97.8460 576.746   3
  10  -5   1-1653.24 708.090   2
 -10   5   1-841.836 859.409   3
 -10   5   2 762.316 700.367   3
 -10   5   3 1067.39 823.062   3
  10   5   5 2604.20 874.482   1
  10  -6  -2 2165.81 970.748   2
 -10   6   0 141.035 821.011   3
  11   0  -2 57.9213 486.801   2
  11   0  -1 469.474 634.870   2
  11   0   0-62.3081 722.744   1
  11   0   0-373.818 581.272   2
  11   0   1-37.4993 849.937   1
 -11   0   4 307.251 704.458   3
 -11   0   5-2052.13 823.814   3
 -11   0   6 203.239 590.805   3
  11  -1  -3 30784.5 2757.26   2
  11  -1  -2 512.373 752.817   2
  11  -1  -1 26263.0 2498.75   2
  11  -1   0 5088.80 1239.44   2
 -11   1   3 29138.0 2401.68   3
 -11   1   4 3072.41 1055.99   3
 -11  -1   4 4155.17 978.064   3
 -11   1   5 38127.5 2909.87   3
 -11  -1   5 38989.1 2896.83   3
 -11   1   6-4.19594 898.423   3
 -11  -1   6 2118.08 846.522   3
  11  -2  -3 174.853 821.259   2
  11  -2  -2-386.499 736.830   2
  11  -2  -1 1886.66 795.138   2
 -11   2   3-882.544 693.051   3
 -11   2   4 421.419 641.574   3
 -11   2   5 658.571 749.657   3
 -11  -2   5 968.251 507.485   3
 -11  -2   6-207.234 632.878   3
 -11   3   3 15151.3 1961.32   3
 -11   3   4 961.815 840.189   3
 -11   4   3 100.866 705.339   3
   0   0   0    0.00    0.00   0

TITL abs_ost in Pna2(1)
REM Pna2(1) (#33, found as Pbn2(1) in ba-c setting)
CELL 0.71073   8.811051   7.782412  11.657114  90.0000  90.0000  90.0000
ZERR    4.00   0.000263   0.000216   0.000336   0.0000   0.0000   0.0000
LATT -1
SYMM -x,-y, z+1/2
SYMM  x+1/2,-y+1/2, z
SYMM -x+1/2, y+1/2, z+1/2
SFAC C H N O Fe
UNIT 12.00 32.00 8.00 24.00 4.00
TREF
HKLF 4
END
;
_shelx_hkl_checksum              17149

