####################################################################### 
# 
# This file contains crystal structure data downloaded from the 
# Cambridge Structural Database (CSD) hosted by the Cambridge 
# Crystallographic Data Centre (CCDC).
# 
# Full information about CCDC data access policies and citation 
# guidelines are available at http://www.ccdc.cam.ac.uk/access/V1 
# 
# Audit and citation data items may have been added by the CCDC. 
# Please retain this information to preserve the provenance of 
# this file and to allow appropriate attribution of the data. 
# 
#######################################################################

data_hydrfe_p63_360k
_audit_block_doi                 10.5517/ccdc.csd.cc1mk86n
_database_code_depnum_ccdc_archive 'CCDC 1506141'
loop_
_citation_id
_citation_doi
_citation_year
1 10.1039/C6CP06648H 2016
_audit_update_record             
;
2016-09-23 deposited with the CCDC.	2023-04-05 downloaded from the CCDC.
;

_audit_creation_method           SHELXL-2014/7
_shelx_SHELXL_version_number     2014/7
_chemical_name_systematic        ?
_chemical_name_common            ?
_chemical_melting_point          ?
_chemical_formula_moiety         ?
_chemical_formula_sum            'C3 H8 Fe N2 O6'
_chemical_formula_weight         223.96

loop_
_atom_type_symbol
_atom_type_description
_atom_type_scat_dispersion_real
_atom_type_scat_dispersion_imag
_atom_type_scat_source
C C 0.0033 0.0016 'International Tables Vol C Tables 4.2.6.8 and 6.1.1.4'
H H 0.0000 0.0000 'International Tables Vol C Tables 4.2.6.8 and 6.1.1.4'
Fe Fe 0.3463 0.8444 'International Tables Vol C Tables 4.2.6.8 and 6.1.1.4'
N N 0.0061 0.0033 'International Tables Vol C Tables 4.2.6.8 and 6.1.1.4'
O O 0.0106 0.0060 'International Tables Vol C Tables 4.2.6.8 and 6.1.1.4'

_space_group_crystal_system      hexagonal
_space_group_IT_number           173
_space_group_name_H-M_alt        'P 63'
_space_group_name_Hall           'P 6c'

_shelx_space_group_comment       
;
The symmetry employed for this shelxl refinement is uniquely defined
by the following loop, which should always be used as a source of
symmetry information in preference to the above space-group names.
They are only intended as comments.
;

loop_
_space_group_symop_operation_xyz
'x, y, z'
'x-y, x, z+1/2'
'-y, x-y, z'
'-x, -y, z+1/2'
'-x+y, -x, z'
'y, -x+y, z+1/2'

_cell_length_a                   7.946(3)
_cell_length_b                   7.946(3)
_cell_length_c                   7.618(3)
_cell_angle_alpha                90
_cell_angle_beta                 90
_cell_angle_gamma                120
_cell_volume                     416.6(4)
_cell_formula_units_Z            2
_cell_measurement_temperature    360(2)
_cell_measurement_reflns_used    1818
_cell_measurement_theta_min      2.9460
_cell_measurement_theta_max      24.7960

_exptl_crystal_description       block
_exptl_crystal_colour            green
_exptl_crystal_density_meas      ?
_exptl_crystal_density_method    ?
_exptl_crystal_density_diffrn    1.786
_exptl_crystal_F_000             228
_exptl_transmission_factor_min   ?
_exptl_transmission_factor_max   ?
_exptl_crystal_size_max          0.349
_exptl_crystal_size_mid          0.207
_exptl_crystal_size_min          0.168
_exptl_absorpt_coefficient_mu    1.807
_shelx_estimated_absorpt_T_min   ?
_shelx_estimated_absorpt_T_max   ?
_exptl_absorpt_correction_type   analytical
_exptl_absorpt_correction_T_min  0.646
_exptl_absorpt_correction_T_max  0.796
_exptl_absorpt_process_details   
;
Clark, R. C. & Reid, J. S. (1995). Acta Cryst. A51, 887-897
;
_exptl_absorpt_special_details   ?
_diffrn_ambient_temperature      360(2)
_diffrn_radiation_wavelength     0.71073
_diffrn_radiation_type           MoK\a
_diffrn_source                   'fine-focus sealed X-ray tube'
_diffrn_measurement_device_type  'Xcalibur, Atlas'
_diffrn_measurement_method       ?
_diffrn_detector_area_resol_mean 10.6249
_diffrn_reflns_number            3723
_diffrn_reflns_av_unetI/netI     0.0330
_diffrn_reflns_av_R_equivalents  0.0314
_diffrn_reflns_limit_h_min       -10
_diffrn_reflns_limit_h_max       9
_diffrn_reflns_limit_k_min       -10
_diffrn_reflns_limit_k_max       10
_diffrn_reflns_limit_l_min       -10
_diffrn_reflns_limit_l_max       10
_diffrn_reflns_theta_min         2.960
_diffrn_reflns_theta_max         29.402
_diffrn_reflns_theta_full        26.000
_diffrn_measured_fraction_theta_max 0.966
_diffrn_measured_fraction_theta_full 1.000
_diffrn_reflns_Laue_measured_fraction_max 0.966
_diffrn_reflns_Laue_measured_fraction_full 1.000
_diffrn_reflns_point_group_measured_fraction_max 0.926
_diffrn_reflns_point_group_measured_fraction_full 1.000
_reflns_number_total             711
_reflns_number_gt                617
_reflns_threshold_expression     'I > 2\s(I)'
_reflns_Friedel_coverage         0.795
_reflns_Friedel_fraction_max     0.880
_reflns_Friedel_fraction_full    1.000

_reflns_special_details          
;
 Reflections were merged by SHELXL according to the crystal
 class for the calculation of statistics and refinement.
 
 _reflns_Friedel_fraction is defined as the number of unique
 Friedel pairs measured divided by the number that would be
 possible theoretically, ignoring centric projections and
 systematic absences.
;

_computing_data_collection       ?
_computing_cell_refinement       ?
_computing_data_reduction        ?
_computing_structure_solution    ?
_computing_structure_refinement  'SHELXL-2014/7 (Sheldrick, 2014)'
_computing_molecular_graphics    ?
_computing_publication_material  ?
_refine_special_details          ?
_refine_ls_structure_factor_coef Fsqd
_refine_ls_matrix_type           full
_refine_ls_weighting_scheme      calc
_refine_ls_weighting_details     
'w=1/[\s^2^(Fo^2^)+(0.0322P)^2^+0.0177P] where P=(Fo^2^+2Fc^2^)/3'
_atom_sites_solution_primary     ?
_atom_sites_solution_secondary   ?
_atom_sites_solution_hydrogens   mixed
_refine_ls_hydrogen_treatment    constr
_refine_ls_extinction_method     none
_refine_ls_extinction_coef       .
_refine_ls_abs_structure_details 
;
 Flack x determined using 256 quotients [(I+)-(I-)]/[(I+)+(I-)]
 (Parsons, Flack and Wagner, Acta Cryst. B69 (2013) 249-259).
;
_refine_ls_abs_structure_Flack   -0.030(19)
_chemical_absolute_configuration ?
_refine_ls_number_reflns         711
_refine_ls_number_parameters     50
_refine_ls_number_restraints     8
_refine_ls_R_factor_all          0.0409
_refine_ls_R_factor_gt           0.0295
_refine_ls_wR_factor_ref         0.0628
_refine_ls_wR_factor_gt          0.0595
_refine_ls_goodness_of_fit_ref   1.053
_refine_ls_restrained_S_all      1.052
_refine_ls_shift/su_max          0.000
_refine_ls_shift/su_mean         0.000

loop_
_atom_site_label
_atom_site_type_symbol
_atom_site_fract_x
_atom_site_fract_y
_atom_site_fract_z
_atom_site_U_iso_or_equiv
_atom_site_adp_type
_atom_site_occupancy
_atom_site_site_symmetry_order
_atom_site_calc_flag
_atom_site_refinement_flags_posn
_atom_site_refinement_flags_adp
_atom_site_refinement_flags_occupancy
_atom_site_disorder_assembly
_atom_site_disorder_group
Fe1 Fe -0.3333 -0.6667 -0.2682(4) 0.0262(2) Uani 1 3 d S T P . .
O1 O -0.3154(4) -0.4357(4) -0.4224(3) 0.0502(8) Uani 1 1 d . . . . .
O2 O -0.4356(4) -0.3158(4) -0.6145(3) 0.0502(8) Uani 1 1 d . . . . .
C1 C -0.4443(6) -0.4439(5) -0.5182(9) 0.0436(9) Uani 1 1 d . . . . .
H1 H -0.5617 -0.5605 -0.5174 0.052 Uiso 1 1 calc R U . . .
N1 N -0.076(6) -0.026(8) -0.336(4) 0.121(14) Uani 0.3333 1 d D U P . .
H1A H -0.1854 -0.1313 -0.3505 0.145 Uiso 0.3333 1 d R U P . .
H1B H -0.0957 0.0628 -0.2912 0.145 Uiso 0.3333 1 d R U P . .
N2 N 0.047(4) -0.028(5) -0.214(3) 0.098(11) Uani 0.3333 1 d D U P . .
H2A H 0.1401 -0.0401 -0.2669 0.117 Uiso 0.3333 1 calc R U P . .
H2B H -0.0183 -0.1278 -0.1410 0.117 Uiso 0.3333 1 calc R U P . .
H2C H 0.1002 0.0824 -0.1528 0.117 Uiso 0.3333 1 calc R U P . .

loop_
_atom_site_aniso_label
_atom_site_aniso_U_11
_atom_site_aniso_U_22
_atom_site_aniso_U_33
_atom_site_aniso_U_23
_atom_site_aniso_U_13
_atom_site_aniso_U_12
Fe1 0.0262(3) 0.0262(3) 0.0262(4) 0.000 0.000 0.01312(13)
O1 0.0475(17) 0.0452(17) 0.057(2) 0.0132(15) -0.0155(16) 0.0223(14)
O2 0.0459(17) 0.0490(17) 0.056(2) 0.0166(16) -0.0100(15) 0.0239(14)
C1 0.040(2) 0.039(2) 0.0511(19) 0.008(3) -0.006(3) 0.0192(16)
N1 0.11(3) 0.09(3) 0.17(2) -0.01(3) -0.04(3) 0.06(4)
N2 0.047(14) 0.059(19) 0.16(3) 0.009(19) -0.016(13) 0.005(9)

_geom_special_details            
;
 All esds (except the esd in the dihedral angle between two l.s. planes)
 are estimated using the full covariance matrix.  The cell esds are taken
 into account individually in the estimation of esds in distances, angles
 and torsion angles; correlations between esds in cell parameters are only
 used when they are defined by crystal symmetry.  An approximate (isotropic)
 treatment of cell esds is used for estimating esds involving l.s. planes.
;

loop_
_geom_bond_atom_site_label_1
_geom_bond_atom_site_label_2
_geom_bond_distance
_geom_bond_site_symmetry_2
_geom_bond_publ_flag
Fe1 O2 2.122(3) 6_545 ?
Fe1 O2 2.122(3) 2 ?
Fe1 O2 2.122(3) 4_445 ?
Fe1 O1 2.123(3) 5_545 ?
Fe1 O1 2.123(3) 3_445 ?
Fe1 O1 2.123(3) . ?
O1 C1 1.232(6) . ?
O2 C1 1.228(6) . ?
O2 Fe1 2.122(3) 2_454 ?
C1 H1 0.9300 . ?
N1 N2 0.946(15) 5 ?
N1 N2 1.24(4) 3 ?
N1 N2 1.358(12) . ?
N1 H1A 0.8599 . ?
N1 H1B 0.8610 . ?
N2 H2A 0.8900 . ?
N2 H2B 0.8900 . ?
N2 H2C 0.8900 . ?

loop_
_geom_angle_atom_site_label_1
_geom_angle_atom_site_label_2
_geom_angle_atom_site_label_3
_geom_angle
_geom_angle_site_symmetry_1
_geom_angle_site_symmetry_3
_geom_angle_publ_flag
O2 Fe1 O2 92.51(14) 6_545 2 ?
O2 Fe1 O2 92.51(14) 6_545 4_445 ?
O2 Fe1 O2 92.51(14) 2 4_445 ?
O2 Fe1 O1 83.02(9) 6_545 5_545 ?
O2 Fe1 O1 92.52(10) 2 5_545 ?
O2 Fe1 O1 173.41(9) 4_445 5_545 ?
O2 Fe1 O1 92.52(10) 6_545 3_445 ?
O2 Fe1 O1 173.41(9) 2 3_445 ?
O2 Fe1 O1 83.02(9) 4_445 3_445 ?
O1 Fe1 O1 92.32(14) 5_545 3_445 ?
O2 Fe1 O1 173.41(9) 6_545 . ?
O2 Fe1 O1 83.02(9) 2 . ?
O2 Fe1 O1 92.52(10) 4_445 . ?
O1 Fe1 O1 92.32(14) 5_545 . ?
O1 Fe1 O1 92.32(14) 3_445 . ?
C1 O1 Fe1 126.0(3) . . ?
C1 O2 Fe1 125.9(3) . 2_454 ?
O2 C1 O1 127.5(4) . . ?
O2 C1 H1 116.2 . . ?
O1 C1 H1 116.2 . . ?
N2 N1 N2 47(4) 5 3 ?
N2 N1 N2 42(4) 5 . ?
N2 N1 N2 40(3) 3 . ?
N2 N1 H1A 92.9 5 . ?
N2 N1 H1A 138.8 3 . ?
N2 N1 H1A 117.4 . . ?
N2 N1 H1B 77.4 5 . ?
N2 N1 H1B 60.7 3 . ?
N2 N1 H1B 99.6 . . ?
H1A N1 H1B 110.1 . . ?
N1 N2 H2A 109.5 . . ?
N1 N2 H2B 109.5 . . ?
H2A N2 H2B 109.5 . . ?
N1 N2 H2C 109.5 . . ?
H2A N2 H2C 109.5 . . ?
H2B N2 H2C 109.5 . . ?

loop_
_geom_torsion_atom_site_label_1
_geom_torsion_atom_site_label_2
_geom_torsion_atom_site_label_3
_geom_torsion_atom_site_label_4
_geom_torsion
_geom_torsion_site_symmetry_1
_geom_torsion_site_symmetry_2
_geom_torsion_site_symmetry_3
_geom_torsion_site_symmetry_4
_geom_torsion_publ_flag
Fe1 O2 C1 O1 -177.0(4) 2_454 . . . ?
Fe1 O1 C1 O2 -176.6(4) . . . . ?

loop_
_geom_hbond_atom_site_label_D
_geom_hbond_atom_site_label_H
_geom_hbond_atom_site_label_A
_geom_hbond_distance_DH
_geom_hbond_distance_HA
_geom_hbond_distance_DA
_geom_hbond_angle_DHA
_geom_hbond_site_symmetry_A
N1 H1A O1 0.86 2.17 2.91(6) 143.6 .
N1 H1B O1 0.86 2.34 2.98(5) 131.3 5
N1 H1B O2 0.86 2.42 3.16(5) 144.3 6
N2 H2A O1 0.89 2.36 3.13(3) 145.9 3
N2 H2B O2 0.89 2.17 2.92(4) 141.7 2
N2 H2C O2 0.89 2.38 3.02(3) 128.7 4
N2 H2B N1 0.89 2.40 2.96(3) 121.0 2

_refine_diff_density_max         0.222
_refine_diff_density_min         -0.269
_refine_diff_density_rms         0.056

_shelx_res_file                  
;

    hydrfe_p63_360k.res created by SHELXL-2014/7

TITL A in P63 #173
REM reset to P63 #173
CELL 0.71073 7.946 7.946 7.618 90 90 120
ZERR 2 0.003 0.003 0.003 0 0 0
LATT -1
SYMM -Y+X,+X,0.5+Z
SYMM -Y,+X-Y,+Z
SYMM -X,-Y,0.5+Z
SYMM +Y-X,-X,+Z
SYMM +Y,-X+Y,0.5+Z
SFAC C H Fe N O
UNIT 6 16 2 4 12
EQIV $1 -Y,+X-Y,+Z
EQIV $2 +Y-X,-X,+Z
EQIV $3 +Y,-X+Y,0.5+Z
EQIV $4 -Y+X,+X,0.5+Z
EQIV $5 -X,-Y,0.5+Z
DFIX 1.38 0.01 N1 N2
SIMU N1 N2

L.S. 20
PLAN  20
TEMP 86.85(10)
HTAB N1 O1
HTAB N1 O1_$2
HTAB N1 O2_$3
HTAB N2 O1_$1
HTAB N2 O2_$4
HTAB N2 O2_$5
HTAB N2 N1_$4
FREE N1 N1_$1
FREE N1 N1_$2
FREE N1 H1a_$2
FREE N1 H1b_$1
FREE N1 H1b_$2
FREE H1b H1a_$2
FREE N2 N2_$1
FREE N2 N1_$2
FREE N2 N2_$2
FREE N2 N1_$1
FREE N2 H1b_$1
FREE N2 H1a_$1
FREE N2 H1b_$2
BOND
MORE -1
BOND $H
CONF
fmap 2
acta 52
REM <olex2.extras>
REM <HklSrc "%.\\hydrFe_abs.hkl">
REM </olex2.extras>

WGHT    0.032200    0.017700
FVAR      11.36655
FE1   3   -0.333333   -0.666667   -0.268159    10.33333    0.02625    0.02625 =
         0.02623    0.00000    0.00000    0.01312
O1    5   -0.315394   -0.435686   -0.422448    11.00000    0.04746    0.04516 =
         0.05679    0.01324   -0.01554    0.02233
O2    5   -0.435630   -0.315827   -0.614503    11.00000    0.04588    0.04899 =
         0.05603    0.01661   -0.00998    0.02394
C1    1   -0.444261   -0.443880   -0.518153    11.00000    0.03989    0.03921 =
         0.05107    0.00833   -0.00594    0.01920
AFIX  43
H1    2   -0.561684   -0.560529   -0.517368    11.00000   -1.20000
AFIX   0

N1    4   -0.076361   -0.025804   -0.335618    10.33333    0.11375    0.09271 =
         0.16844   -0.01168   -0.04138    0.06019
AFIX   7
H1A   2   -0.185372   -0.131263   -0.350488    10.33333   -1.20000
H1B   2   -0.095689    0.062767   -0.291238    10.33333   -1.20000
AFIX   0
N2    4    0.047061   -0.028024   -0.213570    10.33333    0.04669    0.05916 =
         0.15861    0.00875   -0.01581    0.00510
AFIX 133
H2A   2    0.140117   -0.040124   -0.266893    10.33333   -1.20000
H2B   2   -0.018289   -0.127815   -0.141021    10.33333   -1.20000
H2C   2    0.100249    0.082412   -0.152802    10.33333   -1.20000
AFIX   0
HKLF 4

REM  A in P63 #173
REM R1 =  0.0295 for     617 Fo > 4sig(Fo)  and  0.0409 for all     711 data
REM     50 parameters refined using      8 restraints

END

WGHT      0.0322      0.0177

REM Highest difference peak  0.222,  deepest hole -0.269,  1-sigma level  0.056
Q1    1   0.3391 -0.0747 -0.2729  11.00000  0.05    0.22
Q2    1  -0.5018 -0.3248 -0.5444  11.00000  0.05    0.22
Q3    1  -0.2188 -0.2426 -0.1031  11.00000  0.05    0.21
Q4    1  -0.4695 -0.3848 -0.7028  11.00000  0.05    0.19
Q5    1  -0.1874  0.0325 -0.2663  11.00000  0.05    0.19
Q6    1  -0.2712 -0.3531 -0.4335  11.00000  0.05    0.19
Q7    1  -0.5752 -0.4980 -0.4047  11.00000  0.05    0.19
Q8    1  -0.5381 -0.5954 -0.6703  11.00000  0.05    0.18
Q9    1  -0.3333 -0.6667 -0.5543  10.33333  0.05    0.17
Q10   1  -0.4323 -0.5489 -0.7669  11.00000  0.05    0.17
Q11   1  -0.3111 -0.5008 -0.4890  11.00000  0.05    0.17
Q12   1  -0.6869 -0.4792 -0.2753  11.00000  0.05    0.17
Q13   1  -0.2105 -0.0440 -0.3492  11.00000  0.05    0.16
Q14   1  -0.4585 -0.5984 -0.5950  11.00000  0.05    0.16
Q15   1  -0.4161 -0.3293 -0.5095  11.00000  0.05    0.16
Q16   1  -0.5451 -0.3297 -0.6845  11.00000  0.05    0.16
Q17   1  -0.4072 -0.4943 -0.3846  11.00000  0.05    0.16
Q18   1  -0.3317 -0.5582 -0.3487  11.00000  0.05    0.15
Q19   1  -0.3020 -0.3995 -0.7667  11.00000  0.05    0.15
Q20   1  -0.4086 -0.3724 -0.6137  11.00000  0.05    0.15
;
_shelx_res_checksum              10669

_shelx_hkl_file                  
;
   0   0  -9-903.644 653.468   1
   0   0  -8 38011.9 2473.95   1
   0   0  -7 173.660 624.418   3
   0   0  -7-258.673 539.431   1
   0   0  -6 115649. 3656.29   2
   0   0  -6 115020. 3510.57   1
   0   0  -6 110296. 3663.76   3
   0   0  -5 92.5461 503.242   2
   0   0  -5-129.139 483.463   1
   0   0  -5-139.033 525.145   3
   0   0  -5 614.852 534.572   4
   0   0  -4 34734.2 1575.28   2
   0   0  -4 32245.8 1713.23   4
   0   0  -4 31488.8 1580.82   3
   0   0  -3 508.252 382.881   3
   0   0  -3 37.5256 353.209   4
   0   0  -3-78.0618 275.247   2
   0   0  -2 1994.54 349.077   2
   0   0  -2 2036.14 417.560   3
   0   0  -2 2153.30 474.125   4
   0   0  -1 93.6230 161.351   4
   0   0  -1 72.1042 139.828   3
   0   0  -1 3.61798 131.653   2
   0   0   1 52.0788 115.494   2
   0   0   1-53.6738 115.819   3
   0   0   2 2347.58 370.195   2
   0   0   3-21.7983 321.785   2
   0   0   4 28796.5 1429.73   2
   0   0   5-169.916 474.051   2
   0   0   6 108423. 3442.01   2
   0   0   7-140.328 430.271   2
   0   0   8 33912.2 2401.85   2
   0   0   9 240.426 486.832   2
   0   1 -10 1457.81 861.836   1
   1   0 -10 1714.04 702.826   1
  -1   0  -9 6879.90 1441.43   3
  -1   1  -9 6376.89 1158.22   1
   0  -1  -9 6164.38 1110.20   1
   0   1  -9 6313.41 1076.56   1
   1   0  -9 5034.58 1231.67   1
  -1   1  -9 5736.39 1403.30   3
   1  -1  -9 6459.74 1164.16   1
  -1   0  -9 5705.06 996.866   1
   1  -1  -8 6385.28 1183.82   1
  -1   1  -8 7887.10 1197.09   1
  -1   1  -8 8424.44 1341.41   3
   0   1  -8 8057.38 1267.51   1
   0  -1  -8 7450.66 1120.31   1
   1   0  -8 6324.05 1187.62   1
  -1   0  -8 7516.32 1333.75   3
  -1   0  -8 8186.34 1133.56   1
   0  -1  -7 40628.7 2613.93   3
  -1   0  -7 41445.2 2672.78   3
   0  -1  -7 41640.4 2220.49   1
   1   0  -7 42561.6 2583.84   1
  -1   1  -7 37788.5 2433.95   3
   0   1  -7 41404.4 2484.97   3
  -1   1  -7 42213.8 2423.87   1
   0   1  -7 45090.6 2630.81   1
  -1   0  -7 39921.9 2159.72   1
  -1   0  -6 20185.1 1429.85   1
   0  -1  -6 16397.5 1324.46   1
   1  -1  -6 17481.0 1467.14   2
   0   1  -6 20566.7 1598.23   2
   1   0  -6 18109.0 1408.72   2
  -1   0  -6 21193.2 1798.75   3
   0   1  -6 21147.0 1597.77   3
  -1   1  -6 21489.2 1602.74   1
   0  -1  -6 20187.8 1776.13   3
  -1   1  -6 16733.6 1537.64   3
   0   1  -6 20654.0 1690.92   1
   0  -1  -5 75705.1 2915.01   3
  -1   0  -5 74667.3 2890.72   4
  -1   1  -5 80809.4 2696.82   1
   1  -1  -5 70925.8 2473.27   2
  -1   0  -5 76688.0 2900.11   3
  -1   0  -5 80385.1 2934.69   2
  -1   1  -5 73351.6 2746.45   2
  -1   1  -5 76883.4 2758.19   3
  -1   1  -5 76138.0 3015.65   4
   1   0  -5 75344.3 2402.69   2
   0   1  -5 77478.9 2640.09   3
   0   1  -5 75916.7 2636.67   2
   0  -1  -5 80422.2 2848.07   2
   0   1  -5 77088.1 2833.98   1
  -1   0  -5 75950.1 2340.82   1
  -1   0  -4 25122.2 1502.12   4
  -1   0  -4 25214.0 1510.08   3
   0   1  -4 21885.5 1244.89   3
  -1   0  -4 23541.3 1460.95   2
   1   0  -4 27114.0 1630.00   4
  -1   1  -4 22464.4 1367.04   3
   1  -1  -4 23316.9 1252.06   2
   0  -1  -4 24791.5 1419.46   2
  -1   1  -4 23096.7 1493.19   4
   1   0  -4 23637.1 1173.10   2
   0  -1  -4 22168.8 1433.82   3
   0   1  -4 23160.7 1530.53   4
  -1   1  -4 23235.6 1316.23   1
  -1   1  -4 24555.0 1452.28   2
   0   1  -4 23470.1 1325.46   2
   0   1  -4 23210.0 1424.18   1
  -1   0  -4 24347.5 1165.42   1
   1  -1  -4 24778.3 1540.07   4
   1   0  -3 14072.2 769.220   2
  -1   1  -3 13102.7 1002.78   4
   1   0  -3 13714.1 1048.53   4
  -1   0  -3 15338.2 787.711   1
   0   1  -3 14048.6 1057.44   4
  -1   1  -3 12112.1 869.044   1
  -1   0  -3 12881.8 952.663   4
   0  -1  -3 14111.0 1047.77   3
   0   1  -3 13183.6 868.065   2
  -1   0  -3 14815.7 1029.25   2
   0   1  -3 13838.8 1001.92   1
  -1   1  -3 13284.6 981.960   2
   0  -1  -3 13069.7 944.683   2
   1  -1  -3 13865.7 833.856   2
   0   1  -3 14050.8 849.749   3
   0   1  -2 4274.96 421.254   3
   0   1  -2 3601.82 540.217   1
   0   1  -2 3837.69 464.762   2
   0  -1  -2 3303.39 498.166   2
   1   0  -2 3598.49 320.695   2
  -1   0  -2 3969.18 361.973   1
  -1   1  -2 3459.18 491.235   2
  -1   1  -2 3437.13 470.083   1
  -1   1  -2 4401.09 547.265   4
  -1   0  -2 3535.67 502.346   2
   0  -1  -2 3905.84 584.160   3
   0   1  -2 3934.53 572.748   4
   1  -1  -2 3937.18 418.660   2
   1   0  -2 4211.81 554.099   4
  -1   0  -1 455276. 2384.88   1
   0  -1  -1 451684. 3762.53   2
   0   1  -1 449321. 3898.54   4
  -1   1  -1 462750. 3596.25   1
   1   0  -1 451202. 3350.99   4
  -1   0  -1 452283. 3688.74   2
  -1   1  -1 448030. 3351.60   4
   0  -1  -1 453996. 2303.13   1
   1  -1  -1 445364. 3629.17   1
   0  -1  -1 458895. 3603.89   3
   0   1  -1 449815. 3710.38   1
   1  -1  -1 450266. 2911.64   2
  -1   1  -1 451341. 3670.25   2
   0   1   0 75225.9 1118.34   1
  -1   0   0 74282.1 1047.93   2
   1  -1   0 39546.5 983.273   1
  -1   1   0 75858.9 1354.38   1
  -1   0   1 448251. 3361.52   4
   0   1   1 450013. 3743.16   2
  -1   1   1 450320. 3695.47   1
   0   1   1 450235. 3563.55   3
   1  -1   1 442814. 3542.50   1
   0   1   1 455427. 2334.29   1
  -1   1   1 455749. 2918.51   2
   0  -1   1 447809. 3893.98   4
   1   0   1 448856. 2394.32   1
   1  -1   1 454243. 3302.79   4
   1   0   1 451939. 3671.87   2
   0  -1   1 444128. 3699.08   1
  -1   1   2 4463.94 537.744   3
   0   1   2 4024.87 544.863   3
   0  -1   2 4345.76 640.013   4
  -1   0   2 3603.43 549.757   4
   1   0   2 3348.13 337.690   1
   0   1   2 4289.46 534.299   2
   1  -1   2 3710.86 531.632   2
   1  -1   2 4128.44 531.054   4
  -1   0   2 3665.14 433.151   3
  -1   0   2 3890.70 323.368   2
  -1   1   2 3957.28 407.541   2
   1   0   2 3219.27 512.680   2
   1  -1   2 3464.05 468.699   1
   1   0   3 13125.9 978.703   2
  -1   0   3 13046.4 716.806   2
   1  -1   3 15170.8 1054.09   4
   0  -1   3 15386.7 1134.22   4
  -1   1   3 12136.3 926.803   3
   0   1   3 12954.6 932.573   2
   0   1   3 12389.0 961.854   3
   1  -1   3 13682.9 980.138   2
  -1   0   3 12352.5 846.656   3
  -1   1   3 13913.8 815.142   2
  -1   0   3 12958.2 1018.63   4
   0  -1   4 25752.2 1594.03   4
   1  -1   4 22869.5 1480.33   4
   1  -1   4 23969.7 1427.41   2
  -1   1   4 23941.0 1431.83   3
  -1   0   4 22520.3 1137.67   2
  -1   0   4 24349.1 1326.68   3
  -1   1   4 23457.9 1219.33   2
   1   0   4 23411.3 1445.66   2
   0   1   4 23971.2 1416.60   2
  -1   1   5 72884.8 2405.46   2
  -1   1   5 75733.6 2807.99   3
   0  -1   5 72562.5 2964.41   4
   1  -1   5 73951.3 2745.44   2
   1   0   5 76027.8 2820.38   2
  -1   0   5 74517.2 2317.78   2
   0   1   5 75617.1 2699.47   2
  -1   1   6 17875.3 1419.74   2
   0   1   6 19260.5 1599.65   2
   1  -1   6 20290.8 1646.35   2
   1   0   6 17341.4 1576.91   2
  -1   0   6 19196.7 1403.27   2
  -1   1   7 40784.5 2279.70   2
   1  -1   7 36800.6 2421.46   2
   1   0   7 38316.8 2491.85   2
   0   1   7 40127.7 2451.68   2
  -1   0   7 41090.2 2220.47   2
   1   0   8 7988.21 1375.41   2
   0   1   8 6368.90 1281.74   2
  -1   1   8 6940.70 1129.18   2
   1   0   9 6075.11 1265.79   2
   0   1   9 4687.05 1157.51   2
  -1   1   9 6282.79 1168.55   2
   0   1  10 1049.67 1014.43   2
   1   0  10-1392.18 790.557   2
   2  -1 -10 10119.0 1667.94   1
  -1   2 -10 11487.9 1743.25   1
   1   1 -10 11957.1 1797.16   1
  -2   1  -9 1205.70 656.727   1
  -2   1  -9 2932.21 1074.35   3
   2  -1  -9 2143.25 845.892   1
  -1   2  -9 553.458 603.613   1
  -1   2  -9 1645.39 837.076   3
  -1  -1  -9 1415.78 969.233   3
   1   1  -9 1609.08 651.455   1
   1  -2  -9 1206.58 488.030   1
  -1  -1  -8 10767.1 1209.02   1
  -2   1  -8 14690.2 1803.80   3
  -1   2  -8 12644.8 1612.71   1
  -1   2  -8 11503.2 1549.55   3
  -2   1  -8 14219.4 1517.35   1
   1  -2  -8 11920.7 1425.91   1
  -1  -1  -8 11940.8 1725.40   3
   1   1  -8 10859.7 1579.28   1
   2  -1  -7 604.318 319.265   2
   1   1  -7-703.233 609.462   1
  -1  -1  -7 570.456 357.624   1
  -2   1  -7-5.76449 364.713   1
  -1  -1  -7 292.041 644.677   3
  -1   2  -7 380.902 614.899   1
  -2   1  -7-111.336 592.547   3
  -1   2  -7 82.6623 494.856   3
  -1   2  -6 42225.8 2404.76   1
   1  -2  -6 39671.3 2299.88   2
  -1   2  -6 44709.0 2295.71   3
  -2   1  -6 46623.9 2194.18   1
   1   1  -6 41637.9 2098.15   2
  -1  -1  -6 45708.9 2663.71   3
  -2   1  -6 42903.3 2447.67   3
   2  -1  -6 43885.5 2002.84   2
   1   1  -6 44443.2 2585.12   1
  -1  -1  -6 45337.0 1849.82   1
   2  -1  -5 11020.5 896.569   2
  -2   1  -5 11099.1 1215.49   4
  -2   1  -5 11601.1 1050.08   1
  -1   2  -5 11684.9 1127.52   3
  -1  -1  -5 10605.4 811.601   1
  -1   2  -5 12207.4 1194.56   2
  -1  -1  -5 12791.6 1347.35   3
  -1  -1  -5 10129.0 1221.40   2
  -1   2  -5 12710.6 1259.96   1
   1   1  -5 13597.3 1075.96   2
   1  -2  -5 11220.8 1156.69   2
   1   1  -4 126020. 3548.11   4
  -2   1  -4 129345. 2886.39   1
   2  -1  -4 127457. 2386.44   2
   1  -2  -4 129143. 3199.97   2
  -1  -1  -4 125815. 3504.03   3
  -1   2  -4 129834. 3383.73   1
   2  -1  -4 126731. 3407.38   4
  -1   2  -4 130998. 3588.86   4
  -1  -1  -4 128943. 2185.39   1
   1  -2  -4 129490. 2969.06   1
  -1   2  -4 126976. 3310.39   2
  -2   1  -4 132633. 3534.02   2
   1   1  -4 130269. 2767.89   2
  -2   1  -4 132440. 3354.48   4
  -1  -1  -4 126629. 3493.94   2
  -1  -1  -3 970.452 490.952   2
  -1  -1  -3 570.161 187.230   1
   1  -2  -3 660.092 355.109   1
   1  -2  -3 477.345 348.771   2
  -1   2  -3 618.125 455.074   1
  -2   1  -3 369.183 296.504   1
   2  -1  -3 766.103 253.438   2
  -2   1  -3 884.992 421.976   2
  -2   1  -3 931.417 395.067   4
   2  -1  -3 340.705 371.129   4
   1   1  -3 725.615 326.555   2
   1   1  -3 776.282 476.357   4
  -1   2  -3 701.774 495.361   4
  -1   2  -3 819.873 415.723   2
  -1  -1  -3 664.485 441.081   3
  -2   1  -2 463973. 5113.04   2
  -2   1  -2 461224. 4209.97   4
   1  -2  -2 456651. 4814.21   2
  -1  -1  -2 465724. 5263.59   2
  -2   1  -2 463656. 4335.38   1
   2  -1  -2 457698. 2511.82   2
  -1  -1  -2 468951. 5030.37   3
  -1   2  -2 466502. 5251.02   4
   1  -2  -2 450305. 4339.10   1
   1   1  -2 452490. 5118.52   4
  -1   2  -2 465896. 5134.04   1
   2  -1  -2 460706. 4617.70   4
  -1   2  -1 224446. 3205.55   1
   1  -2  -1 219318. 2800.00   1
   1  -2  -1 230928. 3123.30   2
   2  -1  -1 230433. 3329.96   1
   1   1  -1 226957. 3174.65   4
  -2   1  -1 225954. 1988.71   4
  -1  -1  -1 229043. 3244.82   2
  -2   1  -1 226723. 2892.05   1
   1   1  -1 230964. 2617.14   2
  -2   1  -1 226546. 3014.97   2
   2  -1   0 182068. 2120.20   2
   2  -1   0 179355. 2687.02   1
  -1   2   0 175116. 2572.76   1
  -2   1   0 181159. 2701.93   1
   1   1   0 178594. 2506.92   2
   1  -2   0 183228. 2593.05   1
  -2   1   0 181181. 2093.78   2
  -1  -1   0 179010. 2534.10   2
   1  -2   1 226835. 3348.06   4
  -1   2   1 235485. 3218.96   2
   2  -1   1 226032. 1959.03   4
   1   1   1 231887. 3225.32   2
   2  -1   1 230188. 3052.78   2
   1  -2   1 228929. 3186.62   1
  -1  -1   1 226323. 3159.54   4
   2  -1   1 224282. 2878.97   1
  -1   2   1 228687. 2930.53   1
  -1   2   2 462877. 4814.60   2
   1  -2   2 464164. 5131.90   1
   1  -2   2 466816. 5226.59   4
  -1  -1   2 469683. 5211.41   4
  -1   2   2 458291. 5074.80   3
   1   1   2 457217. 5190.37   2
  -1  -1   2 461370. 3010.99   3
   2  -1   2 461415. 4356.59   1
  -1   2   2 459843. 4453.62   1
   2  -1   2 470241. 5160.06   2
  -1  -1   3 885.690 467.102   4
  -2   1   3 658.086 237.924   2
   1   1   3 303.946 437.064   2
  -1   2   3 599.915 404.181   2
  -1   2   3 747.528 415.056   3
   2  -1   3 117.834 352.456   2
   2  -1   3 485.105 322.412   1
   1  -2   3 398.700 519.659   4
   1  -2   3 994.288 446.104   1
  -2   1   4 124873. 3184.85   3
   1  -2   4 127453. 3516.44   4
  -1  -1   4 127260. 3556.86   4
   1   1   4 128765. 3465.80   2
  -1   2   4 125069. 3078.24   2
   2  -1   4 123655. 3413.38   2
   2  -1   4 127201. 2919.75   1
  -1   2   4 131672. 3522.64   3
  -2   1   4 128264. 2312.83   2
   1  -2   5 13168.5 1394.90   4
   1   1   5 12400.1 1279.08   2
  -2   1   5 10102.1 1143.53   3
  -1  -1   5 12862.4 1355.74   4
  -1   2   5 10721.3 1110.66   2
  -2   1   5 11378.1 897.988   2
   2  -1   5 12789.4 1317.57   2
   1   1   6 39580.2 2403.25   2
  -1   2   6 41362.4 2226.77   2
   2  -1   6 42872.4 2536.14   2
  -2   1   6 46673.2 1958.25   2
   1  -2   6 41407.2 2565.09   4
   2  -1   7 58.1493 588.042   2
  -2   1   7-185.994 363.941   2
  -1   2   7-28.7066 542.637   2
   1   1   7 285.589 536.650   2
   1   1   8 13667.4 1819.85   2
  -2   1   8 9320.10 1178.56   2
  -1   2   8 10780.8 1509.69   2
   2  -1   8 11605.7 1652.51   2
   1   1   9 960.022 803.348   2
   2  -1   9 1791.40 831.614   2
  -1   2   9 21.3204 782.984   2
   1   1  10 10222.2 1783.26   2
  -2   2 -10 3631.44 947.138   3
   0   2 -10 2655.84 1238.32   1
   2   0 -10 2794.01 1398.93   1
   2   0  -9 13945.9 1947.70   1
  -2   2  -9 12508.1 1729.52   3
   2  -2  -9 10590.6 1602.16   1
  -2   0  -9 10592.1 1711.62   3
  -2   2  -9 10891.9 1571.31   1
   0   2  -9 11496.9 1737.23   1
  -2   0  -8 994.672 812.034   3
   2   0  -8 118.672 447.632   1
  -2   2  -8 1911.34 813.927   3
   0  -2  -8 569.166 575.121   1
   0   2  -8 693.332 620.876   1
  -2   0  -8 530.443 530.846   1
  -2   2  -8 519.823 536.155   1
   0   2  -7 12727.0 1589.44   1
   2   0  -7 12245.9 1178.52   2
   2  -2  -7 11233.0 1308.20   2
  -2   0  -7 13167.1 1671.50   3
  -2   2  -7 11659.8 1486.48   3
   0   2  -7 12312.8 1339.97   3
   0  -2  -7 11204.0 1122.68   1
  -2   0  -7 12458.9 1195.11   1
  -2   2  -7 11753.1 1407.46   1
   2  -2  -6 29128.2 1799.36   2
  -2   0  -6 34889.6 2318.88   3
  -2   2  -6 32348.8 2084.59   3
   0   2  -6 33244.3 1895.48   3
   2   0  -6 32552.9 1666.86   2
   0   2  -6 29949.5 2141.42   1
   0  -2  -6 29755.6 2223.71   3
  -2   0  -6 33408.2 1672.75   1
  -2   2  -6 28606.7 1945.27   1
   0  -2  -5 50145.9 2533.78   3
  -2   0  -5 47748.7 2456.16   3
   0  -2  -5 47329.6 2432.61   2
   0   2  -5 42070.4 2302.22   1
  -2   2  -5 48006.1 2236.28   1
   2   0  -5 50399.0 1737.26   2
  -2   0  -5 47330.0 2366.53   4
   0   2  -5 49478.7 2225.62   2
   2  -2  -5 44847.9 1937.90   2
  -2   2  -5 46465.1 2388.55   4
   0  -2  -5 47247.4 1793.89   1
  -2   0  -5 50523.9 1772.35   1
   0   2  -5 48635.1 1989.19   3
   0  -2  -4 6283.52 601.963   1
   2   0  -4 5790.03 539.473   2
   0   2  -4 6500.63 679.492   3
  -2   2  -4 5968.35 829.992   4
  -2   2  -4 5484.29 871.120   2
   0  -2  -4 6419.91 943.433   3
   0  -2  -4 7161.17 927.794   2
   0   2  -4 6751.22 828.625   2
   2  -2  -4 6127.59 702.324   2
   0   2  -4 5676.84 886.936   4
  -2   0  -4 6255.20 594.383   1
   2   0  -4 6577.82 948.962   4
   0   2  -4 5147.68 846.466   1
  -2   0  -4 6638.21 942.902   2
   2  -2  -4 5319.80 861.676   1
  -2   2  -4 6823.29 854.271   1
  -2   0  -4 4513.24 729.018   4
  -2   0  -3 252622. 4499.08   2
   0  -2  -3 260681. 4498.67   3
   0   2  -3 264953. 4596.60   1
   2  -2  -3 255230. 4284.08   1
  -2   2  -3 257583. 4454.79   2
   2  -2  -3 257307. 3486.55   2
   0   2  -3 252496. 3049.39   3
   0  -2  -3 259971. 4515.51   2
  -2   2  -3 264036. 4259.66   4
   0  -2  -3 262253. 2878.02   1
   2   0  -3 252136. 2474.80   2
  -2   2  -3 261375. 4221.81   1
   2   0  -3 262232. 4344.89   4
   0   2  -3 260259. 4705.64   4
  -2   0  -3 258241. 2881.74   1
   2  -2  -2 101577. 1960.85   2
  -2   2  -2 100600. 2490.98   2
   0   2  -2 105532. 2579.25   1
   0  -2  -2 100716. 2436.04   3
  -2   2  -2 102299. 2295.83   4
   2   0  -2 105695. 2325.37   4
   2  -2  -2 101494. 2494.27   1
   0  -2  -2 104869. 1524.47   1
   0  -2  -2 97717.8 2561.14   2
  -2   0  -2 104406. 2556.02   2
  -2   2  -2 103256. 2450.19   1
  -2   0  -2 100047. 1598.12   1
   0   2  -2 102788. 2687.08   4
   2   0  -1 74951.4 1575.84   4
  -2   2  -1 67397.9 1879.64   1
  -2   0  -1 72163.3 1408.97   1
   0   2  -1 72612.0 1878.79   1
   0  -2  -1 70799.2 1296.71   1
  -2   0  -1 71767.1 1837.20   2
   0  -2  -1 70999.0 2000.36   2
   2  -2  -1 69787.6 1946.57   1
   2   0  -1 72358.9 1039.78   2
   0  -2   0 53549.5 1353.85   1
   0   2   0 55297.8 1722.31   2
  -2   0   0 53677.4 1053.51   4
  -2   2   0 54111.8 1677.13   1
   2  -2   0 52827.7 1622.29   1
   2   0   0 54770.2 1442.85   1
   0   2   0 54403.9 1381.59   1
   2   0   0 53070.9 1255.37   2
  -2   0   0 50756.8 1257.37   2
   0  -2   1 72151.5 2145.88   4
   2  -2   1 74010.4 1950.82   1
   2  -2   1 68172.6 1605.90   4
  -2   0   1 73482.2 1111.51   2
   2   0   1 74699.3 1849.35   2
   2   0   1 71193.0 1412.41   1
  -2   0   1 72757.1 1546.26   4
   0   2   1 71503.0 1341.70   1
   0   2   1 73596.7 1734.22   3
   0  -2   1 74327.4 1880.37   1
   0   2   1 72616.2 2037.27   2
  -2   2   1 72450.6 2001.28   1
   2   0   2 100696. 1596.10   1
   0   2   2 102556. 2573.03   2
   2  -2   2 104991. 2464.08   1
   0   2   2 100130. 2412.72   3
  -2   2   2 106664. 2023.51   2
   0  -2   2 102244. 2686.94   4
   2   0   2 102235. 2532.56   2
   2  -2   2 102630. 2257.89   4
  -2   0   2 101355. 2303.87   4
   2  -2   3 261440. 4252.35   1
  -2   0   3 261419. 4349.77   4
  -2   0   3 254373. 3600.93   3
   2   0   3 255236. 4514.99   2
  -2   2   3 259703. 3460.12   2
   0   2   3 259969. 4431.39   3
   0   2   3 257579. 4419.10   2
   2  -2   3 258628. 4194.12   4
   0  -2   3 258473. 4691.60   4
   2   0   3 256313. 2930.12   1
  -2   2   4 6946.42 931.273   3
   0   2   4 5945.03 870.480   2
   2   0   4 5061.02 879.656   2
   2  -2   4 5948.78 861.640   4
  -2   0   4 6747.43 745.916   3
   0  -2   4 6175.25 1019.91   4
   0   2   4 6485.44 871.996   3
  -2   2   4 5119.16 631.001   2
   2  -2   4 5767.04 803.984   1
  -2   0   5 47926.6 2102.20   3
   0   2   5 43902.8 2261.77   2
  -2   2   5 44016.6 1835.91   2
   2  -2   5 45189.0 2358.40   4
   0  -2   5 49713.0 2572.95   4
   2   0   5 46333.3 2452.80   2
  -2   2   6 29828.9 1705.88   2
   2   0   6 32306.8 2270.06   2
   0  -2   6 33543.7 2438.50   4
   0   2   6 31423.9 2090.34   2
   0   2   7 14925.3 1687.52   2
  -2   2   7 12187.8 1276.91   2
   2   0   7 11552.7 1522.79   2
   2   0   8 298.480 663.125   2
  -2   2   8-43.6986 649.644   2
   0   2   8 17.0369 600.864   2
   2   0   9 13789.3 1979.72   2
   0   2   9 14717.1 1964.60   2
   0   2  10 3568.34 1342.52   2
   3  -2 -10 1409.29 920.278   1
  -2  -1  -9 10657.4 1830.65   3
  -3   2  -9 10733.2 1521.73   1
  -1   3  -9 10755.0 1744.08   1
   2   1  -9 13601.4 1916.38   1
  -1   3  -9 14368.1 1700.84   3
  -3   2  -9 11989.5 1864.60   3
   2   1  -8 6239.05 1297.62   1
  -2  -1  -8 8519.81 1651.07   3
  -1   3  -8 6896.62 1223.56   3
  -1   3  -8 9428.99 1593.39   1
  -3   2  -8 9278.56 1348.88   1
  -3   2  -8 6941.55 1347.75   3
  -2  -1  -7 9923.67 910.121   1
   2   1  -7 12677.0 1714.27   1
  -2  -1  -7 11864.9 1612.72   3
  -1   3  -7 11183.9 1317.89   3
  -1   3  -7 11823.2 1542.30   1
  -3   2  -7 9014.27 1366.88   3
  -3   2  -7 10705.5 1294.03   1
   2   1  -6 5188.04 780.464   2
  -1   3  -6 7000.77 1165.22   1
  -1   3  -6 5552.59 899.159   3
  -2  -1  -6 4913.01 562.736   1
  -2  -1  -6 7038.17 1260.39   3
   3  -2  -6 5231.31 712.112   2
   1  -3  -6 6591.65 912.162   1
  -3   2  -6 4013.15 821.119   1
   2   1  -5 48739.5 1812.28   2
  -1   3  -5 45220.7 2455.22   1
  -1   3  -5 52201.4 2115.98   3
  -2  -1  -5 48872.3 1364.86   1
   3  -2  -5 47574.5 1696.96   2
  -2  -1  -5 49127.8 2591.18   3
  -3   2  -5 46120.0 2369.36   4
   1  -3  -5 48414.5 1995.57   1
  -3   2  -5 47074.0 2189.99   1
   1  -3  -5 49399.8 2528.83   2
  -2  -1  -4 82803.3 1345.57   1
  -2  -1  -4 76026.1 3020.71   2
  -3   2  -4 78335.4 2651.92   4
   3  -2  -4 84905.2 1910.74   2
  -2  -1  -4 81191.6 2972.36   3
  -1   3  -4 86925.0 2965.84   2
   3  -2  -4 86378.1 2890.11   4
   2   1  -4 87626.8 3096.14   4
   2   1  -4 77756.5 1982.02   2
   1  -3  -4 76335.9 2819.94   2
   1  -3  -4 81244.9 2322.41   1
  -1   3  -4 82911.6 3122.35   4
  -3   2  -4 78979.5 2562.24   1
   3  -2  -4 80349.6 2991.72   1
  -3   2  -4 82390.8 3034.59   2
  -1   3  -4 84927.0 3032.10   1
  -1   3  -3 182234. 4041.79   1
   3  -2  -3 196725. 4260.30   1
   1  -3  -3 186234. 3134.12   1
  -1   3  -3 191119. 4309.97   4
  -3   2  -3 179895. 3994.33   2
   1  -3  -3 185417. 3999.61   2
  -2  -1  -3 179712. 4102.17   2
  -3   2  -3 184607. 3415.92   4
  -3   2  -3 183465. 3615.28   1
   2   1  -3 180832. 3942.69   4
  -2  -1  -2 153629. 3430.61   2
  -3   2  -2 151136. 2557.89   4
  -1   3  -2 147649. 3344.81   1
   2   1  -2 151819. 2335.94   2
   1  -3  -2 148297. 3364.43   2
   3  -2  -2 147799. 3412.46   1
  -3   2  -2 149412. 3250.86   2
  -3   2  -2 145949. 3052.53   1
   2   1  -2 147101. 3153.30   4
   1  -3  -2 150603. 2638.97   1
   3  -2  -1 129718. 3030.85   1
  -3   2  -1 127901. 2818.74   1
   2   1  -1 127594. 2244.32   2
  -1   3  -1 124287. 2824.36   1
   1  -3  -1 129958. 2447.67   1
  -2  -1  -1 128417. 2837.91   2
  -3   2  -1 124285. 2617.49   2
   1  -3   0 1507.86 405.141   1
   3  -2   0 1226.03 444.607   1
  -1   3   0 500.050 387.623   1
  -2  -1   0 1274.55 398.842   2
  -3   2   0 1336.89 336.501   2
  -3   2   0 1051.49 460.812   1
   2   1   0 741.323 372.078   2
   3  -2   1 110362. 1619.20   4
  -1   3   1 109731. 2809.91   2
   2   1   1 112593. 1695.77   1
   1  -3   1 112645. 2640.07   1
  -3   2   1 111384. 2846.46   1
   1  -3   1 113144. 3017.19   4
  -1   3   1 114600. 2390.67   1
   2   1   1 109683. 2574.43   2
   3  -2   1 111213. 2655.92   1
  -2  -1   1 110175. 2443.23   4
  -1   3   2 161139. 3518.49   2
  -2  -1   2 150292. 3194.71   4
  -1   3   2 159251. 3340.35   3
   2   1   2 161816. 3450.86   2
   3  -2   2 161143. 3257.22   1
   1  -3   2 169504. 3562.55   1
   1  -3   2 159820. 3710.85   4
  -3   2   2 160222. 2096.85   2
   3  -2   2 164180. 2569.63   4
   3  -2   2 157764. 3381.62   2
  -1   3   2 165055. 2896.79   1
   3  -2   3 181207. 4035.30   2
  -1   3   3 182416. 3945.04   2
   3  -2   3 182936. 3340.88   4
  -2  -1   3 183712. 2600.51   3
   1  -3   3 184512. 4227.56   4
  -1   3   3 186482. 4060.16   3
  -3   2   3 184617. 2278.78   2
   2   1   3 187091. 4108.41   2
  -2  -1   3 178387. 3919.04   4
   3  -2   3 183227. 3647.32   1
   1  -3   3 183324. 4084.29   1
   3  -2   4 77287.7 2914.82   2
   1  -3   4 79354.2 3059.44   4
  -2  -1   4 76513.3 2015.18   3
  -1   3   4 78261.9 2921.77   3
  -2  -1   4 78222.1 2926.21   4
  -3   2   4 79144.7 1761.64   2
  -1   3   4 80251.9 2797.41   2
   2   1   4 79119.7 2977.27   2
   3  -2   4 77685.0 2599.14   1
   1  -3   5 49295.4 2700.48   4
   2   1   5 47316.2 2564.65   2
   3  -2   5 48379.9 2285.04   1
  -3   2   5 52104.3 1681.90   2
  -2  -1   5 54588.8 2745.82   4
   3  -2   5 50142.2 2618.11   2
  -1   3   5 46706.7 2373.81   2
  -2  -1   6 6228.10 1227.34   4
   1  -3   6 3093.83 982.174   4
   2   1   6 2857.72 954.329   2
  -1   3   6 3276.84 879.160   2
  -3   2   6 2702.68 580.053   2
   3  -2   6 3466.91 969.224   2
  -3   2   7 8871.98 970.904   2
   1  -3   7 13295.1 1771.99   4
   2   1   7 11945.5 1619.30   2
   3  -2   7 10297.3 1483.49   2
  -1   3   7 10513.5 1414.26   2
   2   1   8 10935.5 1716.09   2
  -1   3   8 8588.56 1455.47   2
   2   1   9 12925.4 1911.75   2
  -1   3   9 11786.3 1626.38   2
  -2   3 -10 6456.09 1213.26   1
  -2   3 -10 1103.83 697.342   3
  -2   3  -9 8091.41 1531.09   3
   1   2  -9 9024.99 1591.49   1
  -2   3  -9 13928.7 1907.06   1
  -3   1  -9 14008.4 1969.35   3
  -2   3  -8 9899.79 1513.29   1
  -1  -2  -8 10707.2 1695.77   3
  -2   3  -8 7863.53 1309.16   3
   1   2  -8 7456.50 1427.50   1
  -3   1  -8 10356.6 1651.28   3
  -3   1  -8 9311.18 1215.38   1
  -1  -2  -7 11411.0 924.807   1
  -1  -2  -7 10783.1 1576.91   3
  -3   1  -7 12288.1 1234.99   1
  -3   1  -7 11986.2 1608.90   3
  -2   3  -7 11592.1 1474.44   1
  -2   3  -7 11197.8 1374.98   3
   1   2  -7 12691.6 1584.67   1
  -1  -2  -6 3069.91 460.127   1
   1   2  -6 3381.31 782.844   2
   1   2  -6 4046.74 983.127   1
  -2   3  -6 3461.19 916.229   1
   2  -3  -6 4096.34 827.049   2
   3  -1  -6 5557.96 697.235   2
  -1  -2  -6 4593.91 580.893   1
   2  -3  -6 4261.79 884.792   1
  -1  -2  -6 2733.51 1009.46   3
  -3   1  -6 4127.24 973.030   3
  -3   1  -6 5030.57 800.032   1
  -2   3  -5 46424.2 2444.88   1
  -3   1  -5 52562.1 2443.15   4
  -1  -2  -5 52696.1 2691.53   3
   1   2  -5 50195.8 2687.10   1
  -1  -2  -5 53337.9 1367.74   1
  -1  -2  -5 51252.0 1396.00   1
  -3   1  -5 47825.1 1941.98   1
   3  -1  -5 50213.6 1454.35   2
   2  -3  -5 49533.7 2290.92   1
   2  -3  -5 49925.4 2339.86   2
   1   2  -5 47948.1 2112.85   2
   1   2  -4 76550.6 2394.58   2
  -1  -2  -4 75375.4 1182.23   1
  -3   1  -4 80624.3 2594.36   4
   3  -1  -4 76992.9 2784.76   4
   3  -1  -4 77596.1 1326.99   2
  -2   3  -4 80112.6 2999.85   4
  -3   1  -4 79250.2 2266.12   1
  -1  -2  -4 80997.8 2992.70   3
   1   2  -4 77788.3 2981.55   1
  -2   3  -4 75439.1 2842.45   2
  -1  -2  -4 76343.9 2987.94   2
  -1  -2  -4 74670.3 1245.53   1
   2  -3  -4 77365.6 2590.49   2
   1   2  -4 77490.0 3009.45   4
  -2   3  -4 74026.5 2781.18   1
  -3   1  -4 73984.5 2942.12   2
   2  -3  -4 80058.7 2637.74   1
   2  -3  -3 187956. 3724.29   1
  -3   1  -3 186602. 3270.59   4
  -3   1  -3 180934. 3102.41   1
   3  -1  -3 186823. 3671.60   4
  -1  -2  -3 184798. 3954.85   3
   1   2  -3 180356. 4151.09   4
  -1  -2  -3 178134. 4163.65   2
   1   2  -3 184980. 4110.15   1
  -2   3  -3 188163. 4049.41   1
  -2   3  -3 189359. 4093.20   4
   2  -3  -3 185327. 3645.97   2
  -3   1  -3 181986. 4010.36   2
  -2   3  -3 186363. 4054.06   2
   1   2  -2 164563. 3616.27   4
  -1  -2  -2 162132. 3246.01   3
  -2   3  -2 163491. 3554.11   1
   3  -1  -2 162206. 2838.24   4
  -2   3  -2 169230. 3526.84   4
  -3   1  -2 163726. 2404.55   4
  -3   1  -2 166027. 2884.84   1
   1   2  -2 167911. 3497.27   1
   3  -1  -2 157490. 3583.57   1
  -1  -2  -2 173486. 3738.17   2
   2  -3  -2 163303. 3254.63   1
  -3   1  -2 163498. 3373.08   2
  -2   3  -1 110395. 2735.87   1
   3  -1  -1 109727. 1739.30   4
   3  -1  -1 110334. 2717.60   1
  -3   1  -1 110392. 2415.18   2
  -1  -2  -1 109525. 2237.52   3
   1   2  -1 113673. 2508.39   2
  -1  -2  -1 112337. 2787.26   2
   1   2  -1 114030. 2539.41   1
  -3   1  -1 110409. 2413.07   1
   2  -3  -1 114739. 2613.91   1
   3  -1   0 792.191 397.505   1
   1   2   0 1711.76 501.359   2
   2  -3   0 895.567 401.478   1
   3  -1   0 1201.29 316.872   2
  -3   1   0 1927.86 340.341   2
  -1  -2   0 1205.43 268.558   3
  -1  -2   0 1895.33 524.768   2
  -3   1   0 844.232 444.880   1
  -2   3   0 877.280 459.735   1
   1   2   0 831.440 334.220   1
  -1  -2   1 120944. 2949.75   4
   1   2   1 128123. 1696.36   1
   2  -3   1 131619. 2941.82   1
   3  -1   1 128350. 2613.96   2
   1   2   1 130773. 2972.31   2
   2  -3   1 132939. 2967.98   4
  -2   3   1 127025. 2846.78   1
  -3   1   1 126467. 1517.49   2
  -2   3   1 123122. 2786.94   2
   3  -1   1 130267. 2619.58   1
   2  -3   2 146130. 3271.86   4
  -1  -2   2 149618. 3467.86   4
   2  -3   2 154670. 3418.65   1
   1   2   2 150182. 3418.79   2
   3  -1   2 151026. 2763.33   1
  -2   3   2 153886. 3246.74   1
  -2   3   2 146418. 3128.29   2
   3  -1   2 149589. 3264.18   2
   2  -3   3 180336. 3980.27   1
   2  -3   3 180359. 3937.72   4
   3  -1   3 179921. 3150.83   1
  -2   3   3 183479. 3601.70   2
   1   2   3 185353. 4125.25   2
  -1  -2   3 181865. 4144.59   4
   3  -1   3 184305. 4045.91   2
   2  -3   4 82014.9 2951.94   4
  -1  -2   4 83144.9 3139.99   4
  -2   3   4 82270.0 2995.02   3
   3  -1   4 82790.1 2338.55   1
   1   2   4 83082.5 3013.70   2
   2  -3   4 80514.8 2962.55   1
  -2   3   4 81613.6 2591.61   2
   3  -1   4 83004.6 3047.34   2
   1   2   5 46741.7 2481.17   2
   2  -3   5 49068.2 2567.86   4
  -1  -2   5 47941.7 2648.08   4
  -3   1   5 44504.5 2237.68   3
  -2   3   5 48223.3 2184.67   2
   3  -1   5 49202.5 2615.24   2
   2  -3   6 5582.89 1146.04   4
  -1  -2   6 6838.10 1206.31   4
  -2   3   6 6460.06 975.592   2
   3  -1   6 5532.67 1081.13   2
   1   2   6 4048.05 923.110   2
   2  -3   7 11503.2 1594.65   4
   1   2   7 12641.3 1587.51   2
  -2   3   7 9121.85 1234.21   2
   3  -1   7 11288.5 1598.31   2
  -1  -2   7 11487.3 1661.76   4
   3  -1   8 8398.93 1466.85   2
   1   2   8 7973.22 1393.36   2
  -2   3   8 5524.22 1086.07   2
   1   2   9 9231.84 1727.66   2
  -2   3   9 8413.93 1415.43   2
   3  -1   9 11223.4 1942.91   2
  -3   3  -9-1318.58 800.835   1
   3   0  -9-184.079 800.730   1
  -3   0  -9-318.057 1128.71   3
  -3   3  -9-588.059 915.884   3
   0   3  -9-1853.34 1131.27   1
  -3   3  -8 16068.5 1842.66   1
  -3   0  -8 19650.8 2238.19   3
  -3   3  -8 17566.6 1913.47   3
   0   3  -8 21439.0 2225.83   1
  -3   3  -7-181.363 535.689   1
   0   3  -7 638.249 480.821   1
   0  -3  -7 115.850 355.587   1
   0   3  -7 174.424 495.318   3
  -3   3  -7 1252.76 536.349   3
  -3   0  -7-185.527 353.556   1
  -3   0  -7-596.880 777.743   3
  -3   0  -6 31732.3 1489.62   1
  -3   3  -6 29659.9 2083.93   1
   0   3  -6 30602.5 1695.57   3
  -3   0  -6 27066.5 2217.68   3
   3   0  -6 31586.9 1341.77   2
   0  -3  -6 31361.4 1492.46   1
   3  -3  -6 31507.8 1826.47   2
   0   3  -6 30445.6 2330.71   1
   0  -3  -5 1024.37 419.988   1
   0   3  -5 1549.11 676.810   1
   3  -3  -5 1354.68 572.638   2
  -3   0  -5 808.211 356.994   1
   3   0  -5 947.396 286.663   2
   0   3  -5 1810.25 604.029   2
   0   3  -5 992.515 463.178   3
  -3   0  -5 1318.34 689.260   4
  -3   3  -5 1019.76 641.190   1
  -3   0  -4 64428.6 2414.26   4
  -3   0  -4 70833.7 1749.49   1
   0   3  -4 65104.9 2822.32   1
   3   0  -4 68433.6 1220.76   2
   3   0  -4 71804.0 2810.29   4
  -3   3  -4 64833.8 2602.89   1
   0   3  -4 71603.5 1814.31   3
  -3   3  -4 64762.3 2641.66   4
   3  -3  -4 68262.3 2179.99   2
   3  -3  -4 68889.2 2771.99   1
   0  -3  -4 69011.8 2927.58   2
   0  -3  -4 67698.1 1621.63   1
   0  -3  -3 5863.85 469.273   1
  -3   0  -3 5064.25 821.587   2
   0   3  -3 5799.76 1025.95   4
   0   3  -3 4907.58 422.646   3
  -3   3  -3 5262.51 795.601   2
   0   3  -3 6545.19 895.887   1
  -3   3  -3 4303.43 744.617   1
   3   0  -3 5783.49 777.501   4
   3  -3  -3 5584.35 827.497   1
   0  -3  -3 6155.35 965.664   2
  -3   0  -3 5775.54 522.315   1
  -3   3  -3 5067.45 783.266   4
  -3   3  -2 187389. 3837.07   2
  -3   0  -2 189056. 2634.82   1
  -3   3  -2 185926. 3871.36   1
   3   0  -2 186547. 3298.31   4
   3  -3  -2 188841. 3970.50   1
  -3   0  -2 186316. 3845.33   2
  -3   3  -2 181067. 3411.87   4
   0  -3  -2 183314. 2390.42   1
   3   0  -2 171091. 1554.59   2
   0  -3  -2 191788. 4136.81   2
   0   3  -2 182726. 3823.18   1
   0  -3  -1 4295.12 737.686   2
   3  -3  -1 5516.76 764.397   1
  -3   3  -1 4011.81 675.841   1
   0   3  -1 4777.73 658.176   1
  -3   0  -1 5648.71 662.714   2
   0  -3  -1 4149.95 451.909   1
   3   0  -1 4627.63 533.389   4
   3   0  -1 4783.08 423.814   2
   3  -3   0 229188. 4096.95   1
   0  -3   0 221867. 3333.65   1
   0   3   0 221258. 2766.51   3
   0   3   0 224274. 4128.88   2
   0   3   0 231443. 3449.65   1
   3   0   0 229543. 3155.72   2
  -3   0   0 227768. 3221.82   2
  -3   0   0 225050. 2520.26   4
  -3   3   0 224368. 4091.07   1
   3   0   0 220688. 3490.89   1
   3  -3   1 4124.41 679.011   1
   0   3   1 4106.76 488.511   1
  -3   3   1 4825.14 792.628   1
  -3   0   1 4233.15 414.012   2
   0  -3   1 4767.69 817.870   4
  -3   0   1 3697.11 469.947   4
   0   3   1 5339.23 791.844   2
   3   0   1 4397.08 623.165   2
   3  -3   1 4516.45 605.038   4
   0   3   1 3594.42 534.056   3
   0  -3   1 4852.62 671.136   1
   3   0   1 4479.25 538.217   1
   3   0   2 186985. 2653.97   1
   0   3   2 187957. 3614.82   3
   3  -3   2 183234. 3854.56   1
  -3   3   2 186485. 3263.43   2
   0  -3   2 188222. 4263.49   4
  -3   3   2 186884. 4025.18   1
   0   3   2 185733. 4048.63   2
   0   3   2 182109. 2577.30   1
   3  -3   2 181846. 3292.64   4
  -3   0   2 186708. 3283.19   4
   3   0   2 188023. 3799.71   2
  -3   3   3 3889.26 582.186   2
   3   0   3 5554.47 486.417   1
   0   3   3 4288.64 823.890   2
   3  -3   3 5702.18 769.148   4
   0   3   3 5642.34 774.110   3
   0  -3   3 6289.18 987.947   4
  -3   0   3 5453.09 782.120   4
   3  -3   3 5574.18 825.168   1
   3   0   3 5031.34 859.827   2
  -3   0   4 66654.5 2211.16   3
   3  -3   4 66072.3 2544.77   4
   3  -3   4 64740.3 2637.98   1
   3   0   4 66271.2 1716.22   1
  -3   0   4 66799.4 2653.05   4
  -3   3   4 66205.9 2085.01   2
   0  -3   4 67289.5 2972.50   4
   3   0   4 70281.5 2894.93   2
   0   3   4 67546.4 2834.97   2
   3   0   5 1036.36 729.998   2
  -3   3   5 504.369 408.779   2
   0   3   5 477.805 671.707   2
  -3   0   5 1255.99 507.850   3
   0  -3   5 1020.13 664.992   4
   3  -3   5-257.780 640.872   4
  -3   0   6 28937.1 1846.93   3
   3  -3   6 31283.6 2237.07   4
  -3   3   6 28858.0 1671.25   2
   0   3   6 29173.9 2186.05   2
   0  -3   6 33013.5 2514.25   4
   3   0   6 32815.0 2368.04   2
  -3   3   7 380.679 463.265   2
   0   3   7-682.731 768.060   2
   3   0   7 18.0174 693.175   2
   0  -3   7-390.103 797.017   4
   0  -3   8 19678.3 2269.95   4
   0   3   8 21003.3 2241.27   2
  -3   3   8 19065.6 1639.83   2
   3   0   8 19714.0 2264.12   2
   0   3   9 296.449 943.333   2
   3   0   9-2602.95 1125.29   2
  -1   4  -9 5710.09 1551.09   1
  -4   3  -9 6438.19 1486.51   3
  -3  -1  -8 6513.64 1523.52   3
   3   1  -8 4261.26 1219.52   1
  -1   4  -8 8333.44 1508.14   1
  -4   3  -8 6479.05 1175.91   1
  -4   3  -8 5311.28 1193.22   3
  -4   3  -7 26225.5 2046.92   1
  -1   4  -7 23942.7 2287.44   1
  -3  -1  -7 22936.9 2299.01   3
  -1   4  -7 23363.2 1779.03   3
   1  -4  -6 5759.84 834.697   1
  -1   4  -6 5420.92 1126.98   1
  -3  -1  -6 5834.95 1185.67   3
  -1   4  -6 6612.00 934.308   3
  -4   3  -6 8490.67 1171.32   1
  -3  -1  -6 6409.83 457.767   1
  -4   3  -5 40827.3 2281.22   1
  -4   3  -5 38181.2 2261.09   4
  -1   4  -5 37342.0 2475.22   1
  -3  -1  -5 42947.6 2593.38   3
  -1   4  -5 39620.3 1756.99   3
   1  -4  -5 40310.1 1740.06   1
   3   1  -5 38351.2 1410.06   2
  -4   3  -4 21858.0 1609.67   1
   4  -3  -4 24169.2 1675.71   4
  -3  -1  -4 23838.3 1783.39   3
  -1   4  -4 22626.9 1857.50   1
  -4   3  -4 25893.5 1663.39   4
   3   1  -4 24175.6 1053.26   2
   3   1  -4 25922.2 1850.51   4
   1  -4  -4 22704.4 1250.80   1
   3   1  -4 23462.9 1005.10   2
  -4   3  -3 58922.4 2098.77   4
  -1   4  -3 60368.0 2617.48   1
  -3  -1  -3 65321.2 2771.03   2
   4  -3  -3 60728.3 2679.39   1
  -4   3  -3 62980.2 2642.82   2
   1  -4  -3 59321.6 2689.22   2
   3   1  -3 61060.5 1550.80   2
   1  -4  -3 61375.7 1893.89   1
   3   1  -3 59281.6 2447.41   4
  -4   3  -3 56161.1 2382.01   1
   1  -4  -2 7971.85 1059.92   2
   1  -4  -2 8091.84 733.542   1
  -3  -1  -2 8494.97 992.989   2
  -4   3  -2 7242.09 967.083   1
   3   1  -2 7868.75 634.651   2
   3   1  -2 8137.99 920.173   4
   4  -3  -2 9989.03 1108.66   1
  -1   4  -2 7484.42 960.420   1
  -4   3  -2 8914.42 967.500   2
   3   1  -1 129163. 2537.42   2
  -1   4  -1 125963. 3234.94   1
   4  -3  -1 134971. 3595.28   1
   1  -4  -1 133052. 2854.04   1
  -3  -1  -1 126602. 3187.41   2
  -4   3  -1 123664. 3338.77   1
  -4   3  -1 136286. 3144.35   2
  -4   3   0 70318.9 2054.07   2
  -1   4   0 73454.6 2330.88   1
   4  -3   0 71646.8 2590.02   1
   1  -4   0 75319.8 2284.07   1
   3   1   0 71473.6 2122.77   2
  -3  -1   0 71091.1 2187.67   2
  -4   3   0 76816.1 2698.05   1
  -3  -1   0 71874.2 2037.34   4
  -1   4   0 75285.2 2700.52   2
   1  -4   1 126876. 3205.16   1
   3   1   1 135066. 3182.44   2
   1  -4   1 125587. 3782.52   4
  -3  -1   1 132059. 2701.01   2
  -1   4   1 122913. 3498.50   2
   3   1   1 126023. 2349.25   1
  -4   3   1 129499. 3574.56   1
   4  -3   1 128145. 3418.85   1
  -3  -1   1 132737. 2892.50   4
   4  -3   1 136363. 2213.39   4
  -1   4   1 129894. 2912.77   1
  -1   4   2 5644.41 963.017   2
   3   1   2 6191.23 894.657   2
  -4   3   2 6553.84 634.884   2
   1  -4   2 6013.08 877.808   1
   4  -3   2 6701.46 638.619   4
   1  -4   2 5865.58 996.757   4
  -3  -1   2 7310.37 831.402   4
  -1   4   2 6713.02 829.712   3
  -1   4   2 6532.65 745.418   1
  -4   3   2 5816.30 966.729   1
   4  -3   2 6677.19 906.985   1
   3   1   2 6219.61 461.774   1
   1  -4   3 65272.6 2904.95   4
  -1   4   3 58458.2 2639.33   2
  -3  -1   3 64725.4 2533.03   4
   3   1   3 63729.2 2654.71   2
   4  -3   3 61529.8 2034.02   4
   4  -3   3 67970.0 2637.42   1
  -1   4   3 62165.5 2548.44   3
  -1   4   3 63580.6 2050.82   1
   1  -4   3 62954.9 2658.74   1
  -4   3   3 65840.7 1689.13   2
   4  -3   4 24354.3 1541.19   4
   1  -4   4 25238.3 1987.38   4
  -3  -1   4 23390.5 1736.97   4
  -3  -1   4 26156.0 1233.29   3
   4  -3   4 23212.0 1656.43   1
  -1   4   4 24087.9 1871.68   2
  -4   3   4 26833.3 1115.62   2
   3   1   4 24070.1 1878.47   2
   1  -4   5 34222.1 2496.10   4
  -3  -1   5 34544.0 2308.15   4
  -3  -1   5 35478.5 1612.29   3
  -1   4   5 34674.4 2275.04   2
  -4   3   5 34395.6 1357.22   2
   3   1   5 33819.7 2354.88   2
  -3  -1   6 7114.01 1259.58   4
  -1   4   6 6880.96 1185.43   2
   3   1   6 7016.06 1343.81   2
  -4   3   6 5047.10 654.519   2
   1  -4   6 7516.83 1351.76   4
   1  -4   7 24575.3 2479.83   4
  -1   4   7 25386.5 2280.07   2
   3   1   7 27980.6 2477.57   2
  -4   3   7 23469.4 1415.89   2
  -1   4   8 6473.01 1335.79   2
   1  -4   8 7564.72 1654.44   4
   3   1   8 2978.18 1055.80   2
  -1   4   9 6027.68 1557.16   2
  -2   4  -9-509.226 802.690   1
  -4   2  -9-769.513 1127.73   3
  -4   2  -8 15939.3 1647.10   1
  -2  -2  -8 20593.0 2235.58   3
  -2   4  -8 18391.3 1836.27   3
  -4   2  -8 15948.6 2020.81   3
  -2   4  -8 19304.5 2183.70   1
   2   2  -8 21294.5 2311.72   1
  -2   4  -7 1701.14 843.750   1
  -4   2  -7 1825.31 670.395   1
  -2  -2  -7 2496.86 923.409   3
  -2   4  -7 2156.18 792.104   3
   2   2  -7 210.776 619.717   1
   2  -4  -6 9628.65 1149.59   1
  -4   2  -6 10457.7 1173.06   1
  -2   4  -6 9869.34 1397.66   1
  -2  -2  -6 12208.1 1622.12   3
   2   2  -6 10072.5 1068.77   2
   2   2  -6 11519.1 1578.66   1
   2  -4  -5 6196.29 939.449   1
  -2   4  -5 7068.90 1193.96   1
  -2  -2  -5 6877.21 1184.38   3
  -4   2  -5 6465.96 947.369   4
   2   2  -5 5009.93 1015.80   1
  -4   2  -5 6257.29 920.332   1
   2   2  -5 7442.92 860.753   2
   2  -4  -4 146874. 4061.42   2
  -4   2  -4 143859. 3437.91   4
  -2  -2  -4 145347. 4209.69   3
   4  -2  -4 141130. 3747.57   4
  -2   4  -4 147887. 4291.73   1
   2  -4  -4 149847. 3588.26   1
  -4   2  -4 147215. 3574.28   1
   2  -4  -3 59.6497 525.567   2
   2  -4  -3 779.858 442.421   1
  -2   4  -3 222.941 571.083   1
  -2  -2  -3 36.5917 421.129   2
  -4   2  -3-158.070 381.775   4
   4  -2  -3 286.900 423.569   4
  -4   2  -3 110.107 494.413   1
  -4   2  -3 60.9469 443.172   2
   2   2  -3 104.398 633.930   4
  -2   4  -3 843.172 637.305   4
  -2  -2  -3-82.9203 467.959   3
   4  -2  -3-282.709 672.456   1
  -2   4  -2 107614. 3212.13   1
  -4   2  -2 105807. 1912.90   4
   4  -2  -2 104452. 2341.53   4
   2   2  -2 106124. 2577.48   2
  -4   2  -2 107361. 3004.49   2
   4  -2  -2 104971. 3262.00   1
   2  -4  -2 103326. 2722.77   1
  -2  -2  -2 106987. 2864.04   3
  -2  -2  -2 105859. 3246.35   2
  -4   2  -2 99695.6 2784.62   1
   2  -4  -1 31418.7 1528.09   1
  -2   4  -1 31848.9 1700.56   1
  -4   2  -1 32603.2 1508.34   2
   4  -2  -1 31739.9 988.733   4
  -2  -2  -1 30724.8 1343.17   3
   2   2  -1 30284.4 1461.12   2
   4  -2  -1 32204.4 1795.65   1
  -4   2  -1 31005.8 1623.20   1
  -2  -2  -1 27778.7 1620.16   2
  -2  -2   0 120788. 3021.55   2
   2  -4   0 111711. 2923.77   1
   2   2   0 122724. 2981.41   2
  -4   2   0 111816. 3049.99   1
   4  -2   0 126811. 3248.31   1
  -4   2   0 119189. 2442.90   2
  -2   4   0 122683. 3099.80   1
   4  -2   1 29995.0 1456.06   2
  -2   4   1 29238.3 1697.67   2
   2  -4   1 31505.4 1848.53   4
   2  -4   1 31731.7 1663.11   1
   2   2   1 32132.5 1035.82   1
  -4   2   1 28452.8 1683.02   1
   2   2   1 33000.8 1696.76   2
  -2  -2   1 30650.8 1636.69   4
  -2   4   1 30092.0 1571.76   1
  -4   2   1 30785.8 1029.51   2
   4  -2   1 32818.3 1668.06   1
   4  -2   2 103230. 2982.64   2
   4  -2   2 101031. 2821.22   1
  -2   4   2 106797. 3198.52   2
   2  -4   2 106190. 3306.36   4
  -2  -2   2 110706. 3165.88   4
   2   2   2 104436. 3140.28   2
  -2   4   2 104277. 2905.87   1
   2  -4   2 114038. 3274.09   1
  -4   2   2 101471. 1306.31   2
  -2   4   3-19.6233 537.603   2
   2   2   3-226.951 677.674   2
   2  -4   3-240.678 623.415   4
   2  -4   3 235.421 402.179   1
   4  -2   3 279.457 493.483   2
  -2   4   3 120.432 447.802   1
   4  -2   3 330.833 405.934   1
  -2   4   3-644.495 511.511   3
  -2  -2   3 223.379 537.919   4
   4  -2   4 150206. 4299.04   2
   2   2   4 145809. 4267.92   2
   2  -4   4 140544. 4251.58   4
  -2   4   4 143906. 3969.51   2
  -2  -2   4 145096. 4282.66   4
   4  -2   4 141447. 3558.36   1
  -2  -2   5 7350.08 1251.24   4
   2  -4   5 4943.86 1088.83   4
   4  -2   5 6760.45 1195.44   2
   2   2   5 6777.97 1163.06   2
  -2   4   5 7593.30 1128.28   2
   4  -2   5 7224.77 972.570   1
   2  -4   6 8059.29 1401.30   4
  -2   4   6 9809.70 1301.91   2
   2   2   6 9766.02 1487.67   2
   4  -2   6 12701.0 1587.60   2
  -2  -2   6 10592.3 1561.72   4
   2  -4   7 2184.72 1022.83   4
  -2  -2   7 513.465 861.912   4
  -2   4   7 621.572 748.843   2
   2   2   7 917.717 852.483   2
   4  -2   7 763.421 950.641   2
   2  -4   8 19760.4 2290.46   4
   2   2   8 19504.5 2292.05   2
   4  -2   8 18436.9 2192.64   2
  -2   4   8 15906.5 1826.30   2
  -2   4   9 855.982 568.617   2
   2   2   9-1701.67 1137.85   2
  -3   4  -9 3124.25 1357.26   1
  -3   4  -9 6319.92 1344.73   3
  -3   4  -8 7179.41 1300.55   1
  -3   4  -8 4803.51 1186.41   3
   1   3  -8 4250.53 1294.36   1
  -4   1  -8 4217.06 1158.00   3
  -4   1  -7 24995.1 1695.94   1
  -3   4  -7 27128.0 2366.43   1
  -4   1  -7 27799.6 2421.90   3
   1   3  -7 25762.0 2432.40   1
  -1  -3  -7 26203.8 2376.18   3
   3  -4  -6 4560.20 947.128   2
  -3   4  -6 6575.26 1221.28   1
  -1  -3  -6 5259.43 304.690   1
  -4   1  -6 5881.22 813.342   1
  -1  -3  -6 5525.67 1141.50   3
   1   3  -6 5927.91 1248.99   1
   1   3  -5 31408.7 1931.63   2
  -3   4  -5 34305.4 2309.15   1
  -1  -3  -5 40213.6 2477.83   3
   1   3  -5 35645.4 2400.31   1
  -4   1  -5 36247.9 2050.70   4
   3  -4  -5 36762.4 2100.68   2
  -4   1  -5 35510.8 1700.87   1
  -4   1  -4 24098.8 1453.60   4
   4  -1  -4 25568.7 1696.10   4
  -3   4  -4 23472.1 1787.27   4
  -1  -3  -4 24001.7 1779.53   3
  -3   4  -4 26225.5 1879.68   1
   1   3  -4 25885.0 1920.12   1
   3  -4  -4 25141.9 1625.28   2
   3  -4  -4 24697.3 1719.34   1
  -4   1  -4 22763.5 1310.86   1
  -3   4  -3 57017.8 2523.76   2
  -4   1  -3 62683.5 1883.15   4
  -3   4  -3 56972.9 2559.74   1
  -3   4  -3 62305.6 2618.92   4
   4  -1  -3 64845.4 2264.63   4
  -1  -3  -3 64042.0 2533.40   3
   1   3  -3 60705.2 2637.69   1
  -1  -3  -3 57223.2 2710.86   2
   1   3  -3 62809.7 2814.97   4
  -4   1  -3 62856.9 2037.95   1
  -4   1  -3 64065.3 2641.33   2
   3  -4  -3 64475.4 2553.25   1
   1   3  -2 7038.42 885.241   2
  -1  -3  -2 7767.36 1012.71   2
   3  -4  -2 6498.76 894.802   1
  -4   1  -2 5725.46 470.697   4
  -4   1  -2 7040.18 875.453   2
  -1  -3  -2 6103.14 801.511   3
  -3   4  -2 5401.26 870.229   1
   4  -1  -2 7948.55 727.084   4
   4  -1  -2 6476.20 935.181   1
  -4   1  -2 6311.10 747.632   1
   1   3  -2 6538.47 873.668   1
   3  -4  -1 131890. 3357.76   1
   4  -1  -1 135540. 2023.42   2
   4  -1  -1 132951. 2036.50   4
  -4   1  -1 130135. 2983.26   1
   4  -1  -1 132478. 3418.92   1
  -1  -3  -1 134940. 2738.24   3
   1   3  -1 132484. 3097.63   1
  -4   1  -1 129737. 2982.96   2
  -1  -3  -1 129000. 3509.61   2
   1   3  -1 130101. 3272.12   2
  -3   4  -1 138220. 3566.37   1
   3  -4   0 75630.2 2562.28   1
   1   3   0 72130.8 2023.89   1
   1   3   0 72166.6 2518.86   2
   4  -1   0 74810.3 2458.57   1
  -4   1   0 71882.9 1902.67   2
  -3   4   0 75762.0 2624.60   1
   4  -1   0 72947.1 1920.92   2
   3  -4   1 131704. 3455.97   1
   1   3   1 130464. 2272.77   1
   3  -4   1 131843. 3362.84   4
  -1  -3   1 132645. 3654.56   4
   1   3   1 127824. 3446.95   2
  -3   4   1 133362. 3499.59   1
   4  -1   1 129459. 3021.70   1
  -4   1   1 133678. 2033.39   2
   4  -1   1 132493. 2997.80   2
   4  -1   2 8413.03 817.600   1
  -3   4   2 6488.45 903.044   2
   3  -4   2 8317.08 990.833   4
  -1  -3   2 7643.37 1051.79   4
   1   3   2 8201.28 1064.26   2
   3  -4   2 9271.84 1036.47   1
   1   3   2 7122.51 440.869   1
  -3   4   2 7842.49 1032.10   1
   4  -1   2 7797.86 945.919   2
  -1  -3   3 57807.2 2689.83   4
   3  -4   3 60053.9 2451.31   4
   3  -4   3 57357.1 2534.57   1
   4  -1   3 55995.2 1940.44   1
  -3   4   3 57051.0 2511.90   1
  -3   4   3 57380.7 2299.19   2
   1   3   3 59468.3 2672.97   2
   4  -1   3 52466.3 2421.40   2
  -1  -3   4 24030.0 1942.86   4
   1   3   4 23441.3 1851.75   2
  -3   4   4 22500.5 1517.52   2
   3  -4   4 22939.1 1755.78   4
   4  -1   4 22251.1 1291.28   1
   4  -1   4 19696.7 1665.12   2
  -1  -3   5 43091.9 2720.28   4
  -4   1   5 37609.2 2147.75   3
   4  -1   5 37253.4 1786.18   1
  -3   4   5 40328.4 2117.75   2
   1   3   5 40716.6 2544.22   2
   3  -4   5 37490.2 2353.29   4
   4  -1   5 40249.8 2538.61   2
  -1  -3   6 7370.82 1329.22   4
   3  -4   6 7555.30 1315.08   4
   1   3   6 6267.94 1252.64   2
   4  -1   6 5887.34 1267.99   2
  -3   4   6 4428.45 871.013   2
   4  -1   7 18596.0 2028.99   2
   1   3   7 24132.2 2285.68   2
  -1  -3   7 20804.6 2323.71   4
   3  -4   7 24265.5 2268.49   4
  -3   4   7 23054.9 1860.10   2
   1   3   8 5046.07 1398.19   2
  -3   4   8 5628.62 1130.99   2
   4  -1   8 3423.35 1173.71   2
   1   3   9 5784.24 1515.70   2
  -4   4  -9 7688.11 1402.09   3
  -4   4  -9 3151.50 812.052   1
  -4   0  -8 3453.03 1105.91   3
  -4   4  -8 2725.76 840.036   3
  -4   4  -8 5231.92 1030.95   1
   0   4  -8 1541.33 977.280   1
  -4   4  -7 35729.5 2584.27   1
  -4   0  -7 37695.1 2993.52   3
   0   4  -7 32974.5 2775.46   1
  -4   4  -6 22932.9 1982.89   1
  -4   0  -6 20841.7 2045.65   3
   0   4  -6 25750.8 2270.82   1
  -4   0  -6 22360.3 1146.53   1
   0  -4  -5 27102.3 1063.61   1
  -4   0  -5 24571.6 1804.23   4
  -4   4  -5 27755.3 2050.03   1
   0   4  -5 29112.5 1233.15   3
  -4   0  -5 29035.2 1254.30   1
   0   4  -5 26044.2 2156.65   1
   0   4  -4 155.817 576.932   1
  -4   0  -4-30.2363 473.558   4
  -4   0  -4 1064.01 359.553   1
   4   0  -4 452.498 585.493   4
   0   4  -4 101.150 207.088   3
  -4   4  -4 388.128 497.636   4
  -4   4  -4-18.2938 618.106   1
   0  -4  -4 137.247 247.596   1
   4  -4  -3 1098.87 700.627   1
   0  -4  -3 1097.22 300.727   1
   4   0  -3 2615.49 598.291   4
  -4   4  -3 1126.96 732.641   1
   0   4  -3 1103.02 184.733   3
  -4   0  -3 1448.22 407.459   1
   0   4  -3 1928.40 718.438   1
  -4   4  -2 28510.5 1730.85   2
   4   0  -2 29583.9 1463.49   4
   0   4  -2 26892.8 1709.46   1
   0  -4  -2 24509.7 1789.99   2
  -4   0  -2 28106.2 1692.25   2
   4  -4  -2 29363.5 1888.60   1
   0  -4  -2 28977.7 1176.12   1
   4   0  -2 28229.1 829.444   2
  -4   4  -2 25377.1 1701.31   1
   0   4  -1 188688. 4018.02   1
   0  -4  -1 182722. 3165.38   1
   0   4  -1 186924. 2347.74   3
   4   0  -1 186898. 2780.89   2
   4   0  -1 185899. 4114.66   1
   0   4  -1 188737. 4330.26   2
  -4   0  -1 185090. 3836.70   2
  -4   4  -1 186592. 4397.19   1
   4  -4  -1 181516. 4340.74   1
   4  -4   0 61901.0 2531.18   1
   0   4   0 60120.6 2079.22   1
  -4   0   0 56929.5 1439.40   4
   0   4   0 56903.0 1637.49   3
   0  -4   0 55820.6 1971.13   1
   0   4   0 57674.0 2495.54   2
   4   0   0 57470.4 2105.59   1
  -4   0   0 56955.7 1923.35   2
  -4   4   0 57686.3 2498.57   1
   4   0   0 57511.9 1860.70   2
   0   4   1 182581. 3271.22   1
   4  -4   1 187761. 4423.61   1
   0  -4   1 184214. 4721.85   4
  -4   0   1 185845. 2960.86   2
  -4   0   1 188329. 2970.44   4
   0   4   1 187392. 3465.47   3
   0  -4   1 188399. 3965.87   1
   0   4   1 186534. 4491.09   2
  -4   4   1 188794. 4475.63   1
   4   0   1 185925. 3474.44   1
   4  -4   1 186126. 3570.52   4
   4   0   1 188863. 3808.12   2
   0  -4   2 28479.5 2004.45   4
   4  -4   2 29464.7 1837.84   1
  -4   0   2 28084.3 1407.18   4
   0   4   2 28607.5 1603.67   3
  -4   4   2 29330.3 1600.95   2
  -4   4   2 27929.5 1862.73   1
   0   4   2 26465.9 1855.76   2
   0   4   2 26000.2 1187.85   1
   4   0   2 27179.5 1676.45   2
   4  -4   2 27444.2 1464.65   4
   4   0   2 27087.6 1276.09   1
   4   0   3 1158.83 329.822   1
  -4   0   3 1381.63 560.022   4
   4  -4   3 1903.60 594.409   4
   0   4   3 1485.02 673.508   2
   0  -4   3 1382.18 805.439   4
   4   0   3 1929.97 759.971   2
   0   4   3 1327.04 551.356   3
  -4   4   3 370.113 454.028   2
   0   4   3 516.403 297.522   1
   0   4   4-385.939 763.168   2
   0  -4   4-181.065 764.171   4
   4   0   4 156.125 611.004   2
   4  -4   4-168.287 565.566   4
   4   0   4 153.085 241.050   1
  -4   4   4-275.211 409.174   2
  -4   0   4 35.0357 499.909   4
   0  -4   5 25208.4 2165.59   4
   4  -4   5 24349.0 1844.16   4
  -4   4   5 25963.8 1532.25   2
  -4   0   5 25820.7 1641.88   3
   0   4   5 28154.7 2179.16   2
   4   0   5 26435.6 2166.49   2
   4  -4   6 20030.4 1870.68   4
  -4   0   6 20641.1 1624.14   3
   0  -4   6 23161.3 2317.28   4
   0   4   6 18282.4 1958.18   2
  -4   4   6 19571.0 1448.11   2
   4   0   6 26223.1 2302.40   2
   0  -4   7 33892.3 2927.64   4
   0   4   7 33678.9 2704.94   2
  -4   4   7 31655.8 1880.18   2
   4   0   7 34356.1 2845.93   2
   0  -4   8 2065.08 1191.91   4
   0   4   8 3100.96 1078.53   2
   4   0   8 4927.01 1393.87   2
   0   4   9 347.822 1165.41   2
   4   1  -8 11775.8 1885.50   1
  -5   4  -8 9244.36 1544.80   1
  -4  -1  -8 6707.65 1671.62   3
  -1   5  -8 10445.0 1775.67   1
  -1   5  -7-231.270 518.014   1
  -5   4  -7-42.8517 696.289   1
  -4  -1  -7-43.2295 718.744   3
  -5   4  -6 45726.0 2815.47   1
  -1   5  -6 43862.6 3046.50   1
  -1   5  -6 45384.8 1993.29   3
  -4  -1  -6 48637.4 3161.12   3
   4   1  -5 65.4550 192.400   2
  -5   4  -5-240.609 687.762   1
  -1   5  -5 241.897 672.086   1
  -1   5  -5-94.8751 370.684   3
  -4  -1  -5-206.846 646.920   3
   1  -5  -5 661.568 253.472   1
   1  -5  -4 18617.2 1170.00   1
  -5   4  -4 17340.2 1463.93   4
  -1   5  -4 18063.8 1788.54   1
   4   1  -4 16789.5 764.454   2
  -5   4  -4 18131.9 1699.93   1
   4   1  -4 16742.3 746.456   2
   1  -5  -3 2576.77 497.903   1
   4   1  -3 1957.07 370.610   2
  -1   5  -3 2949.07 746.110   1
   4   1  -3 3340.93 801.150   4
  -5   4  -3 2246.86 816.057   1
   1  -5  -2 54940.9 2001.79   1
  -1   5  -2 55137.0 2597.82   1
  -4  -1  -2 54001.1 2590.76   2
   4   1  -2 54422.5 1652.72   2
  -5   4  -2 54431.3 2619.96   1
  -5   4  -2 54118.6 2478.63   2
  -5   4  -1 7880.44 1143.37   1
  -4  -1  -1 6525.35 953.818   2
  -5   4  -1 8013.47 944.210   2
   1  -5  -1 7467.08 858.134   1
   4   1  -1 8071.25 799.417   2
  -1   5  -1 7208.45 1009.44   1
  -5   4   0 214928. 4104.95   2
  -1   5   0 222874. 4486.89   1
  -4  -1   0 218276. 4276.78   2
  -4  -1   0 222351. 3784.32   4
   1  -5   0 214697. 4321.37   1
   4   1   0 213917. 4160.60   1
  -1   5   0 201356. 5026.44   2
  -5   4   0 210142. 5058.96   1
   4   1   0 211750. 4007.31   2
   5  -4   0 211946. 5030.06   1
   4   1   1 7082.00 765.054   1
  -1   5   1 7161.40 1171.07   2
  -4  -1   1 7573.72 843.584   4
   4   1   1 7580.80 978.111   2
   5  -4   1 7646.89 1137.87   1
  -1   5   1 7522.20 873.323   3
   5  -4   1 8502.81 713.576   4
   1  -5   1 7732.03 994.934   1
  -4  -1   1 8366.94 869.311   2
  -5   4   1 7017.77 1138.80   1
  -1   5   1 8995.97 954.996   1
   1  -5   1 7642.10 1289.89   4
  -4  -1   2 62307.0 2361.99   4
   5  -4   2 60085.1 1861.82   4
   1  -5   2 59245.3 3050.93   4
  -1   5   2 57423.4 2440.12   3
  -5   4   2 56503.6 2100.07   2
  -5   4   2 54492.7 2797.25   1
  -1   5   2 58119.8 2870.84   2
  -1   5   2 64052.5 2283.78   1
   4   1   2 62219.6 2636.88   2
   4   1   2 58982.9 1704.74   1
   5  -4   3 2211.89 557.535   4
  -5   4   3 1263.81 520.978   2
   4   1   3 2032.90 267.442   1
   4   1   3 1270.78 734.342   2
  -4  -1   3 2107.69 668.901   4
  -1   5   3 1905.72 874.678   2
  -1   5   3 2330.80 579.591   1
   1  -5   3 2533.71 969.210   4
   5  -4   4 15832.2 1297.08   4
  -4  -1   4 15202.0 1524.20   4
   1  -5   4 15228.5 1818.05   4
  -4  -1   4 14067.6 1000.35   3
   4   1   4 14803.9 1613.55   2
  -1   5   4 13354.1 1574.03   2
  -5   4   4 11678.0 905.091   2
   5  -4   5 93.0803 574.362   4
  -1   5   5-44.8033 711.010   2
  -4  -1   5 709.767 577.691   4
  -5   4   5 232.542 294.582   2
   1  -5   5-50.6223 698.452   4
   4   1   5 969.013 795.031   2
  -4  -1   5 261.184 286.767   3
   1  -5   6 47365.5 3315.67   4
  -4  -1   6 50491.6 3090.38   4
  -1   5   6 42569.9 2911.44   2
   4   1   6 47687.2 3187.14   2
  -1   5   7 1539.18 1014.21   2
   1  -5   7-40.7352 997.924   4
   4   1   7 514.833 883.752   2
   1  -5   8 11909.2 2059.46   4
  -1   5   8 9376.70 1833.40   2
   4   1   8 10878.9 1951.53   2
  -1   5   9-2101.94 1145.04   2
  -2   5  -8 2533.60 1134.80   1
  -3  -2  -8 1694.00 1000.22   3
   3   2  -8 4468.80 1129.69   1
   3   2  -7 9850.02 1757.64   1
  -2   5  -7 9982.44 1624.20   1
  -5   3  -7 10323.9 1420.96   1
  -3  -2  -7 9965.94 1562.25   3
  -2   5  -7 9388.28 1217.15   3
   3   2  -6 8759.56 1396.78   1
  -5   3  -6 11289.6 1347.27   1
  -3  -2  -6 10127.8 1600.21   3
  -2   5  -6 10990.8 1613.62   1
  -2   5  -5 35333.8 2526.38   1
  -5   3  -5 31026.9 1986.90   4
  -3  -2  -5 33974.5 2439.90   3
   3   2  -5 33628.2 1631.87   2
   2  -5  -5 33799.7 1890.78   1
  -5   3  -5 29222.2 2023.26   1
   3   2  -5 31823.7 1540.45   2
  -2   5  -4 11899.1 1465.16   1
   5  -3  -4 11511.3 1208.67   4
  -5   3  -4 12174.5 1128.93   4
  -3  -2  -4 14550.8 1538.39   3
   3   2  -4 12370.8 1033.44   2
  -5   3  -4 12933.2 1356.65   1
   2  -5  -4 12040.5 1132.77   1
   2  -5  -3 76589.5 2573.13   1
   5  -3  -3 78248.1 2542.30   4
  -2   5  -3 83995.4 3348.83   1
  -5   3  -3 78976.7 2229.44   4
   3   2  -3 76164.7 3063.97   4
   3   2  -3 76380.0 2297.69   2
  -3  -2  -3 78432.0 2994.76   3
  -5   3  -3 75422.2 2912.62   1
   2  -5  -2 30874.2 1669.67   1
   5  -3  -2 30439.3 1385.13   4
  -2   5  -2 29945.0 1949.85   1
  -3  -2  -2 30890.8 1749.50   3
   3   2  -2 30664.3 1511.84   2
  -3  -2  -2 27975.7 1945.80   2
  -5   3  -2 28738.7 1836.07   1
  -5   3  -2 30766.5 1839.62   2
  -2   5  -1 44967.4 2214.77   1
   2  -5  -1 43230.1 1967.26   1
  -3  -2  -1 46433.6 2261.25   2
  -5   3  -1 46058.9 2292.40   1
   5  -3  -1 43666.9 2340.23   1
  -5   3  -1 45614.7 1984.93   2
   3   2  -1 44879.6 1904.41   2
  -2   5   0 12938.8 1207.55   1
  -2   5   0 9685.89 1290.56   2
   5  -3   0 11492.1 490.440   4
  -3  -2   0 12276.0 1166.76   4
  -5   3   0 11606.9 1284.95   1
   3   2   0 13865.1 1179.69   2
  -3  -2   0 13846.0 1223.55   2
   5  -3   0 11471.2 1243.70   1
  -5   3   0 12019.3 956.052   2
   2  -5   0 11182.0 1066.47   1
   5  -3   1 48584.3 2352.84   1
  -3  -2   1 48166.6 2146.13   4
   5  -3   1 41744.9 833.018   4
   2  -5   1 48294.5 2606.59   4
  -5   3   1 48982.5 2469.17   1
  -2   5   1 44235.1 2412.02   2
   2  -5   1 47737.3 2254.70   1
   3   2   1 48914.7 2198.29   2
  -2   5   1 49510.4 2213.64   1
  -5   3   1 50110.2 1634.31   2
   5  -3   2 27174.0 1795.89   1
  -3  -2   2 30350.2 1810.34   4
   2  -5   2 25679.3 2001.40   4
   3   2   2 26530.7 792.038   1
  -2   5   2 29109.3 2027.30   2
  -2   5   2 29601.9 1738.26   1
   3   2   2 26586.5 836.702   1
   3   2   2 27344.6 1850.53   2
  -5   3   2 27781.5 1028.50   2
  -5   3   3 75610.2 1287.79   2
  -3  -2   3 78035.5 3064.71   4
   2  -5   3 80958.3 3517.92   4
   5  -3   3 78874.5 3026.90   1
  -2   5   3 80445.9 2795.60   1
  -2   5   3 79801.6 3291.89   2
  -5   3   3 77009.4 1364.71   2
   3   2   3 83953.4 3301.92   2
   5  -3   4 11989.9 1315.98   1
  -2   5   4 11699.2 1439.92   2
  -3  -2   4 10461.4 1317.49   4
   2  -5   4 12505.4 1595.86   4
   3   2   4 10994.8 1431.96   2
  -3  -2   5 29497.4 2253.86   4
   2  -5   5 29044.6 2410.82   4
  -2   5   5 29784.5 2216.28   2
   3   2   5 27009.6 2241.18   2
  -3  -2   6 12840.4 1723.50   4
  -2   5   6 11317.0 1569.37   2
   2  -5   6 13585.0 1789.90   4
   3   2   6 9068.89 1550.31   2
   3   2   7 9223.13 1613.96   2
  -2   5   7 8310.07 1432.30   2
  -3  -2   7 9024.52 1667.45   4
   2  -5   7 10544.2 1661.63   4
   2  -5   8 1066.98 777.788   4
  -2   5   8 2353.19 1198.50   2
   3   2   8 1533.87 988.824   2
  -2   5   9 4697.23 1463.12   2
  -3   5  -8 2201.11 864.406   1
  -2  -3  -8 2499.42 937.914   3
   2   3  -8 932.116 927.819   1
  -3   5  -8 1757.84 963.020   3
  -5   2  -8 211.291 926.171   3
  -3   5  -7 11391.4 1745.83   1
  -5   2  -7 11290.1 1331.49   1
  -2  -3  -7 10129.7 1774.37   3
   2   3  -7 10012.0 1730.02   1
  -3   5  -6 11917.3 1579.77   1
   2   3  -6 12248.5 1661.61   1
  -2  -3  -6 11821.9 1706.90   3
  -5   2  -6 11913.7 1252.57   1
   2   3  -5 27780.4 1803.39   2
  -5   2  -5 29036.6 1857.94   4
  -3   5  -5 31891.3 2405.88   1
  -2  -3  -5 29184.6 2314.24   3
   2   3  -5 26640.8 2253.63   1
  -5   2  -5 30473.3 1854.58   1
   5  -2  -4 13320.2 1276.33   4
  -2  -3  -4 12031.9 1402.85   3
   2   3  -4 13353.2 1479.60   1
  -5   2  -4 12266.5 1209.02   1
  -5   2  -4 12711.8 1077.02   4
   3  -5  -4 11370.5 1246.29   1
  -3   5  -4 11343.8 1454.36   1
  -3   5  -3 80936.1 3318.32   1
   5  -2  -3 78892.1 2536.78   4
  -5   2  -3 81842.3 2021.83   4
  -2  -3  -3 78476.2 2956.51   3
   2   3  -3 76019.4 3115.72   1
   2   3  -3 78009.7 2688.73   2
  -5   2  -3 80857.8 2766.80   1
   3  -5  -3 79648.2 2907.66   1
   3  -5  -2 30416.7 1812.77   1
  -3   5  -2 27022.3 1877.96   1
   2   3  -2 27684.0 1642.96   2
   5  -2  -2 29643.6 1280.20   4
  -2  -3  -2 25650.7 1566.09   3
   2   3  -2 27926.7 1764.03   1
  -5   2  -2 30530.7 1757.37   1
  -5   2  -2 30628.7 1786.19   2
  -3   5  -1 44911.8 2286.11   1
   3  -5  -1 49426.0 2282.88   1
   5  -2  -1 47616.2 1098.87   4
  -5   2  -1 49245.1 2235.10   1
  -2  -3  -1 46879.8 1761.55   3
   2   3  -1 45836.6 2038.38   1
  -2  -3  -1 47443.7 2411.19   2
   2   3  -1 49948.2 2201.94   2
   5  -2  -1 45405.7 2319.62   1
  -5   2  -1 47712.7 1984.75   2
   3  -5   0 12482.6 1210.77   1
  -2  -3   0 10783.4 735.992   3
   2   3   0 11323.9 927.568   1
  -2  -3   0 12106.0 1246.91   2
  -5   2   0 13460.5 1280.03   1
   2   3   0 13772.8 1284.58   2
   5  -2   0 12873.6 1254.84   1
  -5   2   0 12313.8 910.637   2
  -3   5   0 12365.7 1263.95   1
   5  -2   1 44096.2 1944.45   2
  -2  -3   1 41020.0 2196.12   4
   3  -5   1 47699.6 2438.72   4
   2   3   1 43564.8 1433.37   1
  -3   5   1 42542.8 2253.89   2
   3  -5   1 45825.9 2254.00   1
   2   3   1 46065.6 2265.04   2
  -3   5   1 44836.4 2223.77   1
  -5   2   1 44779.4 1379.65   2
   5  -2   1 46021.8 2155.17   1
   5  -2   2 31370.5 1855.10   2
   2   3   2 28715.9 771.483   1
   5  -2   2 31148.0 1788.20   1
  -2  -3   2 31163.0 2026.40   4
  -3   5   2 29415.0 1953.00   2
  -3   5   2 28486.3 1874.57   1
  -5   2   2 26977.5 662.037   2
   2   3   2 31345.3 2004.08   2
   3  -5   2 32179.6 2087.91   4
   5  -2   3 79912.8 3155.39   2
   5  -2   3 77709.1 2751.71   1
  -2  -3   3 81654.5 3307.55   4
   3  -5   3 78234.7 3223.83   4
  -3   5   3 80898.1 3081.32   1
  -3   5   3 76453.8 3108.40   2
   2   3   3 78779.7 3275.06   2
   5  -2   4 12841.7 1506.92   2
   3  -5   4 14250.1 1609.04   4
  -3   5   4 10643.0 1303.59   2
   5  -2   4 12390.4 1186.44   1
   2   3   4 13001.3 1525.66   2
  -2  -3   4 11543.9 1445.46   4
   5  -2   5 30994.0 2383.60   2
  -2  -3   5 31104.2 2434.51   4
   3  -5   5 31448.4 2371.12   4
   5  -2   5 31586.1 1894.05   1
  -3   5   5 29515.7 2085.79   2
   2   3   5 31250.6 2369.98   2
   3  -5   6 10422.6 1603.39   4
   2   3   6 11128.5 1582.54   2
  -3   5   6 11242.9 1433.68   2
  -2  -3   6 10441.3 1581.21   4
   5  -2   6 10960.6 1640.81   2
  -2  -3   7 12073.2 1761.16   4
   3  -5   7 10968.8 1689.77   4
  -3   5   7 10285.1 1438.00   2
   2   3   7 10072.4 1630.22   2
   5  -2   7 9909.67 1739.46   2
   2   3   8 2478.91 1184.41   2
  -2  -3   8 4923.61 1372.17   4
  -3   5   8 1806.32 854.723   2
   5  -2   8 1116.27 1116.71   2
   3  -5   8 2653.13 1234.75   4
  -4   5  -9-1503.01 921.463   3
   1   4  -8 10751.2 1837.29   1
  -5   1  -8 13976.9 2021.18   3
  -4   5  -8 9767.53 1578.15   3
  -4   5  -8 9043.49 1550.41   1
   1   4  -7 573.235 764.311   1
  -5   1  -7 259.667 735.272   3
  -4   5  -7-93.3487 511.208   1
  -4   5  -6 44064.4 2902.96   1
   1   4  -6 46257.4 3127.45   1
  -5   1  -6 45417.3 2051.81   1
  -5   1  -5-72.2580 440.346   1
  -5   1  -5 17.8322 626.958   4
   1   4  -5 70.9608 583.440   1
  -4   5  -5-799.071 802.530   1
  -4   5  -4 13645.5 1587.16   1
   5  -1  -4 16063.5 1420.33   4
   1   4  -4 15792.0 1625.32   1
  -5   1  -4 15437.2 1196.50   1
  -5   1  -4 13774.8 1121.74   4
  -5   1  -3 2468.31 438.655   4
   5  -1  -3 2491.96 637.699   4
  -4   5  -3 2011.23 785.257   1
  -5   1  -3 2106.51 604.622   1
   1   4  -3 1498.37 678.620   1
  -5   1  -2 61134.1 2264.50   1
   1   4  -2 57395.4 2587.75   2
  -5   1  -2 55314.6 1236.69   4
  -5   1  -2 61726.3 2582.36   2
   1   4  -2 61515.6 2619.91   1
   5  -1  -2 59957.4 1895.43   4
  -4   5  -2 58887.6 2794.31   1
   5  -1  -1 7901.80 649.533   2
   1   4  -1 5526.69 1031.77   2
  -5   1  -1 7286.19 871.432   2
  -4   5  -1 7889.52 1166.37   1
   4  -5  -1 8512.00 1141.76   1
   1   4  -1 6543.88 903.522   1
   5  -1  -1 6708.94 1025.81   1
   4  -5   0 213068. 4924.92   1
   1   4   0 216057. 4038.85   1
   1   4   0 219768. 4997.16   2
   5  -1   0 211240. 4575.11   1
  -5   1   0 217079. 3760.42   2
  -4   5   0 222140. 5115.93   1
   5  -1   0 215954. 3737.00   2
  -4   5   1 8312.35 1224.01   1
   5  -1   1 6353.32 868.117   1
   1   4   1 7206.98 718.618   1
   1   4   1 8380.98 1198.22   2
  -5   1   1 8531.57 678.601   2
  -1  -4   1 9661.21 1363.08   4
   4  -5   1 7286.49 1008.66   4
   5  -1   1 6898.70 880.611   2
   5  -1   2 56719.7 2236.06   1
   4  -5   2 52754.3 2451.48   4
  -1  -4   2 56319.3 2924.54   4
  -4   5   2 50342.9 2471.41   2
  -4   5   2 59765.6 2770.32   1
   1   4   2 57063.0 2789.91   2
   1   4   2 57198.8 1552.46   1
   5  -1   2 60272.7 2516.74   2
  -4   5   3 1420.12 693.576   2
   4  -5   3 2367.45 716.910   4
   5  -1   3 2446.18 778.250   2
   1   4   3 3207.73 920.786   2
  -1  -4   3 2755.28 969.947   4
  -4   5   3 2064.85 857.057   1
   5  -1   3 2463.99 609.476   1
  -1  -4   4 19030.2 1922.30   4
   5  -1   4 17180.2 1232.54   1
   4  -5   4 18817.8 1667.94   4
  -4   5   4 15292.8 1415.48   2
   1   4   4 17961.0 1774.74   2
   5  -1   4 18531.9 1741.40   2
  -1  -4   5 553.617 859.363   4
  -4   5   5 76.4072 529.891   2
   1   4   5 323.170 779.450   2
   4  -5   5-249.203 689.185   4
   5  -1   5 657.597 692.815   2
   5  -1   5 94.9426 375.981   1
   4  -5   6 41249.9 2763.95   4
  -1  -4   6 46838.6 3233.25   4
  -4   5   6 41746.7 2370.92   2
   1   4   6 50213.2 3200.72   2
   5  -1   6 50965.7 3237.56   2
   1   4   7-597.680 756.640   2
   4  -5   7-309.650 885.259   4
  -1  -4   7 1377.68 979.354   4
  -4   5   7 365.751 562.541   2
   5  -1   7-432.764 857.912   2
  -1  -4   8 7860.61 1787.48   4
   1   4   8 10742.9 1732.65   2
   5  -1   8 12346.9 1955.43   2
  -5   5  -8 2599.23 744.275   1
  -5   0  -7 19140.4 2287.43   3
  -5   5  -7 16124.7 1916.57   1
   0   5  -7 16397.8 2131.78   1
   0   5  -6 19281.4 2076.22   1
  -5   0  -6 17045.0 1977.57   3
  -5   5  -6 15338.7 1825.60   1
  -5   5  -5 33520.2 2490.90   1
   0   5  -5 31532.9 2492.09   1
  -5   0  -5 29700.7 1220.01   1
  -5   0  -5 25816.6 1865.35   4
  -5   0  -4 1230.79 335.157   4
  -5   5  -4 533.805 757.939   1
   0   5  -4 202.175 547.955   1
   0  -5  -4 853.906 264.274   1
   0  -5  -3 4098.75 530.259   1
  -5   5  -3 4974.43 1042.69   1
   5   0  -3 4447.64 848.009   4
   0   5  -3 5132.67 1006.18   1
   0   5  -2 13695.4 1437.03   1
   0  -5  -2 15108.4 1027.85   1
   0   5  -2 13152.7 508.276   3
   0   5  -2 16397.1 1587.57   2
  -5   5  -2 16434.6 1631.15   1
   5   0  -2 14166.6 754.249   2
   0   5  -1 121684. 2150.16   3
   0  -5  -1 121989. 2994.82   1
   0   5  -1 122477. 4010.19   2
   5   0  -1 116352. 3671.35   1
  -5   0  -1 118828. 3456.20   2
   0   5  -1 130224. 3740.42   1
  -5   5  -1 118606. 3999.75   1
   5   0  -1 117888. 2600.17   2
  -5   0  -1 119468. 2191.13   4
   0   5   0 39405.9 1978.60   1
  -5   0   0 38743.9 1271.90   4
   0   5   0 39076.3 1552.66   3
   0  -5   0 41216.2 1959.76   1
   0   5   0 40349.1 2435.34   2
   5   0   0 42894.9 2136.00   1
  -5   0   0 40711.7 1883.77   2
  -5   5   0 38909.7 2382.38   1
   5   0   0 38734.5 1765.18   2
   0   5   1 117617. 3053.58   1
   5  -5   1 124382. 3253.27   4
  -5   0   1 117487. 2499.43   4
   0  -5   1 117393. 4286.58   4
   0   5   1 119355. 3042.13   3
   0  -5   1 123458. 3569.92   1
  -5   0   1 121027. 2773.49   2
   0   5   1 118372. 4077.58   2
  -5   5   1 118559. 4039.93   1
   5   0   1 111996. 3156.31   1
   5   0   1 116278. 3327.61   2
  -5   0   2 16020.7 1153.91   4
   0  -5   2 16620.9 1806.56   4
   5  -5   2 15513.9 1264.89   4
   0   5   2 14685.6 1249.70   3
  -5   5   2 14466.4 1397.94   2
  -5   5   2 15797.5 1687.99   1
   0   5   2 17452.1 1723.97   2
   0   5   2 17321.1 1156.80   1
   5   0   2 16033.8 1460.24   2
   5   0   2 16796.7 1194.78   1
  -5   5   3 3437.82 781.772   2
   0   5   3 4182.64 1025.36   2
   0  -5   3 4829.93 1182.67   4
  -5   0   3 3927.52 720.694   4
   5  -5   3 4129.87 767.578   4
   5   0   3 3142.88 930.263   2
  -5   5   3 4514.27 1003.33   1
   0   5   3 2567.24 539.200   1
   5   0   3 3914.89 603.560   1
  -5   5   4 152.407 404.183   2
   5  -5   4 791.915 558.101   4
   0  -5   4 1166.82 778.382   4
   5   0   4 1819.72 754.012   2
  -5   0   4 1203.80 648.031   4
   5   0   4 227.585 229.697   1
   5  -5   5 30894.3 2137.13   4
   0  -5   5 31409.6 2654.40   4
  -5   0   5 30142.7 1840.62   3
  -5   5   5 27402.1 1714.94   2
   0   5   5 29173.9 2482.66   2
   5   0   5 31738.2 2514.20   2
   0   5   6 15457.8 1972.34   2
   5  -5   6 16887.4 1784.00   4
   0  -5   6 18821.7 2232.91   4
  -5   5   6 15125.9 1322.09   2
   5   0   6 18992.8 2129.07   2
   0  -5   7 16197.1 2253.87   4
   0   5   7 16851.8 2172.79   2
   5   0   7 16694.5 2204.23   2
   0   5   8 1257.62 1088.89   2
  -6   5  -8 2795.73 1088.39   1
  -1   6  -7 7760.12 1678.53   1
  -6   5  -7 10613.1 1742.65   1
  -5  -1  -7 6155.02 1387.58   3
  -6   5  -6 3415.10 1059.63   1
  -1   6  -6 4125.65 1101.41   1
  -5  -1  -6 4246.47 1315.43   3
  -1   6  -5 21949.9 2203.93   1
  -5  -1  -5 20945.9 2116.18   3
  -6   5  -5 22169.7 2128.16   1
  -1   6  -4 12291.5 1652.84   1
  -6   5  -4 10859.3 1510.40   1
   1  -6  -3 23862.7 1453.68   1
  -1   6  -3 23089.7 2001.31   1
   5   1  -3 23689.4 1027.43   2
  -6   5  -3 25309.4 2115.07   1
  -1   6  -2 4145.28 952.611   1
  -6   5  -2 6536.68 1241.14   1
   5   1  -2 5117.87 659.073   2
   1  -6  -2 5538.90 789.246   1
  -1   6  -1 32660.0 2131.03   1
  -5  -1  -1 38848.5 1733.04   4
   1  -6  -1 36622.2 1946.11   1
   5   1  -1 32364.9 2148.46   1
  -1   6  -1 36811.3 2511.60   2
  -5  -1  -1 35815.0 2166.18   2
  -6   5  -1 37171.2 2514.30   1
   5   1  -1 36881.7 1716.44   2
  -6   5   0 26557.0 1715.74   2
  -1   6   0 28890.0 1902.57   1
  -5  -1   0 28936.8 1505.24   4
  -1   6   0 26329.5 1505.05   3
   1  -6   0 26586.1 1797.07   1
  -1   6   0 27753.6 2230.77   2
   5   1   0 27405.5 1781.10   1
  -5  -1   0 28014.0 1811.32   2
  -6   5   0 27143.1 2183.30   1
   5   1   0 26845.6 1654.76   2
   1  -6   1 39399.9 2786.87   4
  -5  -1   1 39487.6 1827.57   4
  -1   6   1 38209.1 2006.06   3
  -5  -1   1 37440.2 1909.69   2
  -1   6   1 44639.7 2771.37   2
   6  -5   1 38888.8 1598.78   4
  -6   5   1 39566.6 2641.74   1
   5   1   1 36861.8 1866.39   1
   5   1   1 38623.8 2159.77   2
  -1   6   1 39730.7 2098.58   1
  -6   5   2 5572.13 901.763   2
  -1   6   2 7090.32 948.372   1
   5   1   2 6566.44 746.131   1
  -5  -1   2 5482.91 849.297   4
   6  -5   2 5529.33 715.314   4
   5   1   2 7553.29 1119.84   2
   1  -6   2 6308.33 1395.80   4
  -1   6   2 7895.94 1408.74   2
  -6   5   2 6258.77 1206.23   1
   5   1   3 20349.8 968.868   1
   6  -5   3 21359.2 1383.81   4
   1  -6   3 19846.8 2190.60   4
  -6   5   3 18462.7 1403.41   2
  -1   6   3 21712.1 1491.99   1
  -1   6   3 20830.6 2014.05   2
  -5  -1   3 22618.8 1681.04   4
   5   1   3 24085.0 1978.99   2
   6  -5   4 13302.4 1253.87   4
  -1   6   4 14810.9 1890.95   2
   1  -6   4 13006.8 1824.83   4
  -5  -1   4 14997.5 1525.02   4
   5   1   4 12628.9 1648.54   2
  -6   5   4 14052.4 1118.03   2
   6  -5   5 25400.3 1848.52   4
   1  -6   5 22129.8 2436.61   4
  -5  -1   5 25936.7 2181.70   4
  -1   6   5 24610.9 2373.35   2
   5   1   5 26107.1 2415.16   2
  -1   6   6 4559.81 1313.57   2
   5   1   6 2569.57 937.315   2
   1  -6   6 4533.63 1260.02   4
  -1   6   7 9545.06 1799.07   2
   1  -6   7 8332.30 1863.55   4
   5   1   7 9599.49 1832.54   2
  -1   6   8 3091.42 1442.46   2
   4   2  -7 8427.26 1614.53   1
  -2   6  -7 6627.66 1493.92   1
  -6   4  -7 6913.35 1235.50   1
  -4  -2  -7 7152.49 1535.01   3
  -2   6  -6 2211.82 811.188   1
  -6   4  -6 1373.13 730.920   1
  -4  -2  -6 2981.73 960.327   3
  -2   6  -5 25273.0 2295.61   1
  -4  -2  -5 23646.9 2178.74   3
  -6   4  -5 24482.5 2070.73   1
   2  -6  -4 17380.2 1394.05   1
   6  -4  -4 16726.3 1461.34   4
  -2   6  -4 16586.0 1770.96   1
  -4  -2  -4 17815.1 1818.10   3
   4   2  -4 18384.3 1140.60   2
  -6   4  -4 18228.6 1750.66   1
   6  -4  -3 35692.3 1868.43   4
   2  -6  -3 34243.8 1876.91   1
  -4  -2  -3 38514.1 2322.25   3
   4   2  -3 38200.5 1678.89   2
  -6   4  -3 36156.7 2341.37   1
  -2   6  -3 38723.9 2526.91   1
  -2   6  -2 29557.6 2147.79   1
   2  -6  -2 29112.4 1793.07   1
   4   2  -2 30795.3 1618.45   2
  -6   4  -2 27794.2 2065.63   1
  -2   6  -1 41822.8 2396.94   1
   2  -6  -1 42608.3 2192.74   1
  -6   4  -1 40033.3 2465.98   1
   4   2  -1 41161.6 1961.53   2
  -6   4  -1 41762.7 2161.32   2
  -2   6   0 745.890 817.406   2
  -4  -2   0 904.445 629.651   2
   4   2   0 876.276 591.978   2
   6  -4   0 878.470 263.612   4
  -4  -2   0 1117.53 625.354   4
  -2   6   0 1409.44 656.784   1
  -6   4   0 1055.08 503.936   2
  -6   4   0 1021.32 780.374   1
   6  -4   1 44026.2 1054.53   4
   2  -6   1 42978.3 2758.89   4
  -6   4   1 42837.8 2622.08   1
   4   2   1 45647.1 1789.85   1
  -2   6   1 46282.4 2737.82   2
   4   2   1 46427.0 2357.57   2
  -2   6   1 44107.4 2290.03   1
  -4  -2   1 42604.7 2146.83   4
  -6   4   1 45451.1 1846.80   2
  -6   4   2 34410.6 1452.47   2
  -4  -2   2 34305.9 2041.39   4
   6  -4   2 34926.8 1169.19   4
   2  -6   2 31214.2 2425.45   4
   4   2   2 33362.7 1172.85   1
  -2   6   2 29147.4 2247.32   2
  -2   6   2 32352.8 1977.64   1
   4   2   2 31395.8 1206.11   1
   4   2   2 35458.2 2199.37   2
  -6   4   3 37086.5 1266.62   2
  -4  -2   3 32864.9 2142.48   4
   2  -6   3 33714.6 2589.68   4
  -6   4   3 37499.1 1383.26   2
  -2   6   3 38338.2 2116.16   1
  -2   6   3 37342.5 2597.37   2
   4   2   3 36080.6 2388.68   2
  -6   4   4 14898.5 618.347   2
  -4  -2   4 17808.7 1747.09   4
  -4  -2   4 13355.2 674.085   3
   2  -6   4 20210.7 2116.37   4
  -2   6   4 16515.9 1854.03   2
   4   2   4 17387.8 1821.38   2
  -4  -2   5 25065.0 2193.84   4
   2  -6   5 27313.0 2570.92   4
  -2   6   5 29941.6 2476.77   2
   4   2   5 23242.7 2200.63   2
  -4  -2   6 2259.23 970.590   4
  -2   6   6 1835.38 993.908   2
   2  -6   6 3260.97 1149.99   4
   4   2   6 1551.49 1036.75   2
  -4  -2   7 6240.28 1431.63   4
   2  -6   7 9430.85 1828.45   4
  -2   6   7 4041.87 1282.31   2
   4   2   7 8968.92 1703.19   2
  -2   6   8 2412.70 1179.46   2
   3   3  -7 2499.60 1054.95   1
  -3  -3  -7 3073.20 1091.91   3
  -3   6  -7 2938.86 1062.23   1
  -6   3  -6 10049.7 1361.15   1
   3   3  -6 13376.9 1928.76   1
  -3  -3  -6 13991.8 1820.68   3
  -3   6  -6 13376.6 1854.56   1
  -3   6  -5 15585.4 1851.24   1
  -3  -3  -5 19779.1 2017.20   3
   3   3  -5 19725.9 2049.91   1
   3   3  -5 17520.6 1429.48   2
  -6   3  -5 17535.3 1659.40   1
  -3   6  -4 42274.3 2777.58   1
  -6   3  -4 43123.5 1836.25   4
  -3  -3  -4 43267.6 2651.84   3
   3   3  -4 43897.5 2790.65   1
   3   3  -4 44590.5 2130.07   2
  -6   3  -4 47441.0 2563.95   1
   6  -3  -4 43446.3 2304.33   4
   3   3  -3 9294.72 1091.25   2
   6  -3  -3 11358.5 1051.43   4
  -3  -3  -3 9640.11 1223.75   3
   3   3  -3 10492.5 1330.74   1
   3  -6  -3 9290.27 1146.07   1
  -6   3  -3 10391.6 1314.76   1
  -3   6  -3 9504.99 1396.93   1
  -3   6  -2 95745.3 3748.82   1
   3  -6  -2 94104.2 3349.40   1
   6  -3  -2 97089.2 2304.58   4
  -3  -3  -2 98595.4 3180.27   3
   3   3  -2 96374.2 3444.50   1
   3   3  -2 96282.3 3106.51   2
  -6   3  -2 100527. 3576.99   1
   6  -3  -1 7342.58 427.164   4
  -3  -3  -1 8558.06 906.511   3
  -3   6  -1 8633.55 1203.70   1
   3   3  -1 8568.07 1092.23   2
  -6   3  -1 10220.8 1305.56   1
  -6   3  -1 9046.03 1045.12   2
   3   3  -1 8370.19 1007.41   1
  -3  -3   0 6415.14 1017.84   2
   3   3   0 6819.94 1044.72   2
  -3   6   0 5440.55 995.891   1
   3   3   0 6984.62 824.615   1
  -3  -3   0 6815.92 1116.28   4
  -3  -3   0 7714.94 712.765   3
  -6   3   0 7726.71 1210.32   1
  -6   3   0 7105.37 824.213   2
  -3   6   1 6937.79 1296.36   2
  -3   6   1 7823.34 1175.69   1
  -3  -3   1 8010.52 1178.64   4
   3  -6   1 5185.19 1127.00   4
   3   3   1 8013.40 744.879   1
  -3  -3   1 6319.94 487.060   3
   3   3   1 8329.76 1148.72   2
  -6   3   1 9156.95 793.907   2
   3   3   2 92004.0 1600.45   1
   3  -6   2 99887.0 3972.04   4
  -3  -3   2 94976.0 3551.64   4
  -3   6   2 100315. 3917.06   2
   3   3   2 91582.0 1646.12   1
  -3   6   2 98477.8 3542.89   1
   3   3   2 99996.8 3725.61   2
  -6   3   2 98274.5 1836.10   2
  -3   6   3 11041.8 1487.20   2
  -3  -3   3 9688.39 1310.77   4
   3  -6   3 10979.7 1540.48   4
   3   3   3 10950.3 1469.01   2
  -3   6   3 10959.5 1317.13   1
  -3  -3   4 43294.2 2735.41   4
   3  -6   4 45713.1 2967.32   4
  -3   6   4 44908.3 2820.35   2
   3   3   4 43404.5 2840.27   2
  -3  -3   5 23787.8 2235.81   4
   3  -6   5 19367.7 2090.74   4
  -3   6   5 19151.4 1982.30   2
   3   3   5 21155.1 2109.44   2
   3  -6   6 17377.3 2062.84   4
  -3   6   6 13340.3 1776.22   2
  -3  -3   6 14766.3 1881.31   4
   3   3   6 14138.3 1896.25   2
  -3  -3   7 2823.48 1078.84   4
   3  -6   7 1781.49 948.835   4
  -3   6   7 4.72066 934.789   2
   3   3   7 2520.24 1009.57   2
  -3   6   8 4579.42 1328.46   2
  -4   6  -8 1198.22 1031.33   1
   2   4  -7 9076.26 1647.38   1
  -4   6  -7 6020.79 1360.76   1
  -6   2  -6 988.222 581.304   1
   2   4  -6 2237.08 916.924   1
  -2  -4  -6 2524.38 1071.23   3
  -4   6  -6 2841.79 994.935   1
  -4   6  -5 28737.9 2450.00   1
  -2  -4  -5 27903.8 2324.02   3
   2   4  -5 26348.1 2391.68   1
   2   4  -5 26948.8 1990.29   2
  -6   2  -5 25723.2 1811.74   1
  -4   6  -4 16552.9 1820.92   1
   6  -2  -4 15762.2 1442.46   4
  -2  -4  -4 17798.2 1762.50   3
   2   4  -4 16564.7 1768.11   1
   2   4  -4 16616.2 1570.18   2
  -6   2  -4 15399.7 1439.13   1
  -6   2  -4 17535.6 1123.08   4
  -4   6  -3 34342.7 2483.95   1
   6  -2  -3 35168.9 1746.65   4
  -6   2  -3 34141.8 1089.51   4
  -2  -4  -3 35251.7 2174.36   3
   2   4  -3 37600.1 2418.68   1
   2   4  -3 34925.9 2151.46   2
  -6   2  -3 33628.5 1971.82   1
  -4   6  -2 32040.1 2276.85   1
   6  -2  -2 31299.6 1304.16   4
  -2  -4  -2 34278.3 1882.75   3
   2   4  -2 32978.3 2094.24   1
  -6   2  -2 28965.5 1902.16   1
   2   4  -2 32196.5 2063.25   2
   2   4  -1 41848.0 2155.39   1
  -6   2  -1 42812.5 2357.05   1
   2   4  -1 43370.0 2366.28   2
  -6   2  -1 45007.3 2150.77   2
  -4   6  -1 45676.0 2638.98   1
   2   4   0 789.317 742.312   2
  -4   6   0 2155.22 766.750   1
  -6   2   0 1200.55 401.316   2
   2   4   0 846.054 455.756   1
   6  -2   1 44050.2 2139.59   2
   2   4   1 42890.1 1677.18   1
  -2  -4   1 41432.7 2540.69   4
   4  -6   1 47572.0 2660.79   4
  -4   6   1 44013.0 2612.71   2
   2   4   1 46889.9 2604.73   2
  -6   2   1 43821.8 1555.66   2
  -4   6   1 50161.3 2696.57   1
   6  -2   1 41197.8 2291.81   1
   2   4   2 28904.0 1050.90   1
   6  -2   2 30167.7 1982.82   2
   6  -2   2 28853.6 1945.49   1
  -2  -4   2 33136.8 2331.44   4
   4  -6   2 28526.1 2152.31   4
  -4   6   2 29985.7 2195.32   2
  -6   2   2 27384.6 751.768   2
  -4   6   2 30049.3 2152.51   1
   2   4   2 31619.4 2230.64   2
   6  -2   3 35967.6 2348.37   2
   6  -2   3 37081.5 2134.06   1
  -2  -4   3 38482.4 2638.22   4
   4  -6   3 39285.4 2483.96   4
  -4   6   3 41181.3 2542.89   1
  -4   6   3 33995.5 2327.43   2
   2   4   3 35705.7 2516.90   2
   6  -2   4 18049.0 1840.59   2
   6  -2   4 17618.7 1568.52   1
  -2  -4   4 22669.6 2151.10   4
   4  -6   4 20274.9 1912.71   4
  -4   6   4 15139.9 1679.23   2
   2   4   4 18642.0 2009.31   2
   6  -2   5 20077.5 2064.23   2
  -2  -4   5 25595.5 2408.72   4
   4  -6   5 21925.3 2073.86   4
  -4   6   5 26837.8 2149.39   2
   2   4   5 21898.1 2239.28   2
  -4   6   6 1816.07 851.040   2
   4  -6   6 2842.99 1007.07   4
  -2  -4   6 947.832 888.841   4
   2   4   6 1776.12 1002.96   2
   6  -2   6 2460.85 1136.06   2
  -4   6   7 4486.09 1057.19   2
   2   4   7 10454.9 1910.07   2
   6  -2   7 7440.89 1599.88   2
  -2  -4   7 7200.73 1485.39   4
   4  -6   7 9417.65 1604.51   4
   4  -6   8 2025.99 1225.42   4
  -5   6  -8 769.312 822.076   1
  -5   6  -7 6384.03 1492.19   1
   1   5  -7 10539.8 1821.14   1
  -5   6  -6 3897.31 1137.93   1
   1   5  -6 5208.52 1243.81   1
  -5   6  -5 24030.2 2292.21   1
   1   5  -5 28282.9 2506.20   1
  -6   1  -5 23532.2 1493.34   1
  -5   6  -4 15999.7 1816.47   1
   1   5  -4 12840.2 1532.88   2
  -6   1  -4 12643.0 1022.05   4
   6  -1  -4 13815.5 1428.09   4
  -6   1  -4 12793.7 1161.54   1
   1   5  -4 13035.7 1638.06   1
  -6   1  -3 21692.0 1005.29   4
   6  -1  -3 20615.2 1437.73   4
   1   5  -3 25835.4 2077.36   1
   1   5  -3 24247.4 1984.44   2
  -5   6  -3 19129.9 1897.67   1
   1   5  -2 6791.74 1273.43   2
  -5   6  -2 6598.34 1229.97   1
   1   5  -2 5920.32 1022.26   1
   6  -1  -1 36617.3 1501.96   2
   1   5  -1 38057.4 2168.07   1
   1   5  -1 41007.9 2504.44   2
  -6   1  -1 42429.8 2144.49   2
  -5   6  -1 42325.3 2631.63   1
   1   5   0 28656.4 1745.41   1
   1   5   0 29037.8 2198.63   2
  -6   1   0 26320.1 1567.25   2
   6  -1   0 27326.3 1961.42   1
  -5   6   0 27079.6 2159.66   1
   6  -1   0 30093.7 1630.60   2
   5  -6   1 37380.6 2231.29   4
   1   5   1 39424.4 1793.36   1
  -1  -5   1 37671.1 2591.36   4
  -6   1   1 36728.9 1558.37   2
   1   5   1 35699.7 2420.40   2
  -5   6   1 38859.9 2521.08   1
   6  -1   1 40028.1 2210.30   1
   6  -1   1 38266.6 2034.75   2
  -5   6   2 5624.42 1089.56   2
   1   5   2 5289.11 647.609   1
   1   5   2 3790.01 1027.29   2
   5  -6   2 3509.74 889.025   4
  -1  -5   2 4376.26 1133.45   4
   6  -1   2 5850.86 886.795   1
   6  -1   2 6021.93 997.346   2
  -5   6   2 5304.32 1223.57   1
   6  -1   3 23560.1 1585.23   1
  -1  -5   3 25534.3 2297.89   4
  -5   6   3 24607.1 2177.14   1
   1   5   3 22216.3 843.557   1
  -5   6   3 25688.4 2017.91   2
   5  -6   3 21454.7 1789.23   4
   1   5   3 23074.4 2134.73   2
   6  -1   3 24984.6 1996.55   2
   5  -6   4 13914.9 1541.93   4
   1   5   4 10999.7 1683.42   2
   6  -1   4 16180.1 1257.77   1
  -1  -5   4 13056.3 1762.49   4
   6  -1   4 13136.5 1626.47   2
  -5   6   4 13205.2 1456.76   2
   5  -6   5 20065.3 1934.22   4
  -1  -5   5 25997.4 2564.52   4
  -5   6   5 20163.2 1783.49   2
   1   5   5 23347.1 2316.00   2
   6  -1   5 24799.8 2300.96   2
   5  -6   6 2402.94 925.387   4
  -5   6   6 2077.44 802.140   2
   1   5   6 3086.60 1054.72   2
  -1  -5   6 5508.19 1343.36   4
   6  -1   6 2913.17 1040.73   2
   5  -6   7 7638.68 1429.12   4
  -1  -5   7 7757.26 1638.44   4
   1   5   7 3984.67 1473.79   2
   6  -1   7 6292.63 1565.96   2
  -6   6  -7-377.111 916.143   1
  -6   6  -6 9721.99 1564.10   1
   0   6  -6 12978.8 1945.68   1
  -6   6  -5 527.365 759.250   1
   0   6  -5 5.09065 906.669   1
   0   6  -4 33772.5 2616.04   1
  -6   6  -4 28274.4 2407.95   1
   0   6  -3 1640.44 1083.85   2
  -6   6  -3 1546.71 836.572   1
  -6   0  -3 1224.04 409.712   4
   0   6  -3 2664.26 928.169   1
   0   6  -2 31330.8 2253.28   1
  -6   0  -2 27966.8 1212.55   4
   0  -6  -2 29386.5 1583.58   1
   0   6  -2 32371.4 2476.95   2
  -6   6  -2 25764.0 2262.40   1
   6   0  -2 29721.5 1180.49   2
   0   6  -1 1113.10 666.052   1
   0  -6  -1 2887.64 639.865   1
   0   6  -1 1393.90 1023.78   2
  -6   6  -1 2982.89 1057.99   1
  -6   0  -1 788.275 311.051   4
   6   0  -1 2366.05 536.989   2
   0   6  -1 1784.90 380.032   3
   0   6   0 35901.2 2107.61   1
  -6   0   0 33120.5 1206.17   4
   0   6   0 35201.5 1585.69   3
   0  -6   0 33528.3 2040.62   1
   0   6   0 34251.7 2498.54   2
  -6   0   0 35424.6 1968.41   2
  -6   6   0 29029.4 2333.04   1
   6   0   0 35617.3 1862.55   2
  -6   0   1 1382.89 535.977   2
   6   0   1 2080.96 669.257   1
   0   6   1 3752.48 1195.12   2
  -6   0   1 1615.20 390.129   4
   6  -6   1 2121.67 668.257   4
   0  -6   1 1325.72 906.138   4
   6   0   1 3070.69 787.063   2
   0   6   1 2068.58 630.829   1
   0   6   1 2139.71 568.818   3
  -6   6   1 2661.48 965.517   1
  -6   0   2 31306.6 1607.89   4
   6  -6   2 29908.9 1817.33   4
   0  -6   2 28094.0 2539.84   4
  -6   6   2 33314.6 2223.94   2
  -6   6   2 30500.8 2482.09   1
   0   6   2 33821.5 2636.50   2
   0   6   2 32575.8 1745.66   1
   6   0   2 30853.5 2077.74   2
   6   0   2 29580.9 1767.93   1
  -6   6   3 1170.13 684.022   2
   0   6   3 1755.15 890.167   2
  -6   0   3 1471.38 494.650   4
   6  -6   3 1229.91 645.704   4
   0  -6   3 1191.79 717.498   4
   6   0   3 2194.75 851.009   2
  -6   6   3 2633.54 944.758   1
   6   0   3 1871.62 527.039   1
   0   6   3 1966.03 519.522   1
   6  -6   4 30007.9 2023.60   4
   0  -6   4 33039.6 2802.18   4
  -6   6   4 29154.2 1971.81   2
   0   6   4 31749.7 2677.29   2
   6   0   4 30122.0 2438.81   2
  -6   6   5 311.923 389.890   2
   0   6   5 376.268 837.703   2
   6  -6   5-850.648 660.397   4
   0  -6   5 475.732 751.093   4
   6   0   5-280.297 826.589   2
   6  -6   6 12731.6 1679.03   4
   0   6   6 11053.7 1873.66   2
   0  -6   6 10699.9 1978.80   4
   6   0   6 13743.2 1949.06   2
   0   6   7 720.605 881.597   2
  -7   6  -7 3171.26 1200.70   1
  -1   7  -6 3203.29 1081.92   1
  -7   6  -6 3380.77 957.984   1
  -6  -1  -6 3110.97 1012.53   3
  -1   7  -5 10345.4 1690.71   1
  -6  -1  -5 9398.62 1601.97   3
  -7   6  -5 11165.1 1760.38   1
  -1   7  -4 10548.4 1632.10   1
  -7   6  -4 8911.66 1653.83   1
  -1   7  -3 38101.1 2782.45   1
  -1   7  -3 40470.1 2969.55   2
  -7   6  -3 36657.5 2804.45   1
  -1   7  -2 8297.98 1586.43   2
  -7   6  -2 10491.8 1637.30   1
   6   1  -2 10345.8 915.762   2
  -1   7  -2 11044.6 1493.15   1
  -1   7  -1 20201.3 1885.09   1
  -6  -1  -1 17238.3 1188.80   4
  -1   7  -1 19908.9 2140.10   2
  -7   6  -1 20368.2 2089.81   1
   6   1  -1 19408.0 1396.40   2
  -1   7   0 9606.83 1620.58   2
  -6  -1   0 9045.89 1225.20   2
  -6  -1   0 9934.55 941.586   4
   7  -6   0 10534.0 1006.64   4
   6   1   0 8173.17 1090.36   2
  -1   7   0 10337.1 1333.93   1
  -1   7   0 9233.97 1072.76   3
  -7   6   0 8833.15 1486.49   1
  -6  -1   1 19802.1 1364.42   4
   7  -6   1 20641.6 1321.12   4
   1  -7   1 22885.0 2407.02   4
  -1   7   1 21416.6 1650.48   3
  -6  -1   1 18973.9 1501.79   2
  -7   6   1 20990.2 2203.04   1
  -1   7   1 24753.2 2382.94   2
   6   1   1 19519.3 1613.47   1
   6   1   1 20575.7 1711.44   2
  -1   7   1 20942.2 1721.61   1
  -7   6   2 6432.36 1117.19   2
  -1   7   2 7635.15 1078.22   1
  -1   7   2 7996.60 1516.80   2
  -6  -1   2 8243.82 987.187   4
   7  -6   2 7512.55 867.631   4
   1  -7   2 7574.21 1565.73   4
   6   1   2 8268.29 1277.74   2
  -7   6   2 8242.68 1465.47   1
  -6  -1   3 39033.3 2271.25   4
   7  -6   3 36894.3 1869.84   4
   1  -7   3 35609.5 3034.46   4
  -7   6   3 32811.0 2066.50   2
  -1   7   3 38245.6 2133.71   1
  -1   7   3 34152.5 2905.50   2
   6   1   3 36621.9 2620.53   2
  -1   7   4 10819.3 1762.68   2
  -6  -1   4 7778.51 1213.48   4
   7  -6   4 7999.13 1078.55   4
   1  -7   4 10696.5 1907.57   4
   6   1   4 8169.54 1502.89   2
  -1   7   5 9033.63 1754.12   2
  -6  -1   5 11213.3 1528.10   4
   1  -7   5 12548.0 1979.35   4
   6   1   5 10581.9 1637.96   2
  -1   7   6 3314.97 1384.92   2
   1  -7   6 3136.22 1329.75   4
   6   1   6 2359.67 1203.61   2
  -7   5  -7 761.601 734.172   1
  -2   7  -6 6504.19 1465.31   1
  -7   5  -6 4511.50 1288.97   1
  -5  -2  -6 4835.49 1271.14   3
  -2   7  -5 3099.24 1084.11   1
  -7   5  -5 1354.01 883.368   1
  -5  -2  -5 325.046 973.634   3
  -2   7  -4 37866.2 2872.66   1
  -5  -2  -4 40474.1 2760.54   3
  -7   5  -4 38536.8 2793.06   1
  -7   5  -3 3357.45 920.578   1
   5   2  -3 2296.78 583.825   2
  -5  -2  -3 3026.08 836.757   3
  -2   7  -3 1539.40 838.982   1
  -2   7  -2 26444.4 2225.33   1
  -7   5  -2 24731.0 2155.72   1
   5   2  -2 25634.0 1563.05   2
  -2   7  -1 1463.79 1031.34   2
   5   2  -1 1485.76 615.444   2
  -5  -2  -1 1343.41 600.138   4
  -2   7  -1 2303.41 788.527   1
  -7   5  -1 1100.61 850.282   1
   7  -5   0 30560.2 1119.50   4
  -5  -2   0 30015.7 1841.52   4
   5   2   0 27862.3 1864.45   1
  -2   7   0 34242.2 2691.29   2
  -7   5   0 34618.6 2560.66   1
   5   2   0 29907.3 1943.51   2
  -7   5   0 30792.8 1933.25   2
  -2   7   0 31234.2 2186.63   1
  -2   7   1 2386.26 1008.01   2
  -2   7   1 1607.60 762.360   1
   7  -5   1 1747.96 303.007   4
   5   2   1 1512.98 681.046   2
  -5  -2   1 1953.23 633.386   4
   2  -7   1 695.960 954.554   4
  -7   5   1 636.636 393.747   2
  -7   5   1 1889.59 943.525   1
   5   2   1 1829.68 640.154   1
   7  -5   2 23423.9 1028.68   4
  -5  -2   2 24405.8 1816.66   4
   2  -7   2 22703.5 2346.78   4
  -2   7   2 21346.3 2180.03   2
  -2   7   2 25158.3 1881.25   1
   5   2   2 23121.9 1249.27   1
   5   2   2 22637.1 1957.94   2
  -7   5   2 23299.5 1437.30   2
  -7   5   3 1250.19 534.491   2
  -2   7   3 2060.58 1017.61   2
  -5  -2   3 3228.75 878.026   4
   5   2   3 3259.13 992.709   2
   2  -7   3 3633.23 1259.67   4
  -2   7   3 3307.63 843.128   1
  -5  -2   4 40335.4 2648.24   4
   2  -7   4 42414.8 3273.94   4
  -2   7   4 44903.3 2453.28   1
  -2   7   4 41988.4 3129.36   2
   5   2   4 45313.0 3065.36   2
  -2   7   5 847.420 1002.08   2
  -5  -2   5 1422.16 996.707   4
   2  -7   5 3336.80 1152.31   4
   5   2   5 1583.82 891.748   2
  -2   7   6 3991.61 1429.44   2
  -5  -2   6 4440.33 1330.38   4
   2  -7   6 5180.12 1354.38   4
   5   2   6 8073.55 1713.42   2
  -2   7   7 124.750 691.305   2
  -4  -3  -7 4160.96 1453.97   3
  -7   4  -6 3888.89 1160.05   1
  -4  -3  -6 6241.20 1343.42   3
   4   3  -6 3575.01 1239.64   1
  -3   7  -6 4116.78 1174.82   1
  -7   4  -5 9504.82 1485.03   1
   4   3  -5 9760.96 1641.56   1
  -4  -3  -5 10155.7 1614.90   3
  -3   7  -5 9409.06 1597.22   1
   4   3  -4 5245.15 1174.60   1
  -7   4  -4 4038.18 1094.82   1
   4   3  -4 4660.45 810.288   2
  -4  -3  -4 5342.19 1134.77   3
  -3   7  -4 6567.73 1355.04   1
  -3   7  -3 32683.1 2569.46   1
  -4  -3  -3 38049.0 2398.65   3
   4   3  -3 32956.5 2434.69   1
   4   3  -3 34751.0 1963.42   2
  -7   4  -3 33135.0 2387.58   1
   7  -4  -2 12040.3 872.727   4
  -4  -3  -2 11693.3 1285.39   3
  -3   7  -2 11851.7 1528.28   1
   4   3  -2 14285.9 1527.80   1
  -7   4  -2 13469.5 1545.07   1
   4   3  -2 13068.2 1287.59   2
  -3   7  -1 20275.2 1902.45   1
  -4  -3  -1 18732.0 1392.69   3
   4   3  -1 19234.7 1579.69   1
  -7   4  -1 18707.4 1886.14   1
   4   3  -1 20700.9 1665.50   2
   7  -4  -1 16547.3 576.249   4
  -3   7   0 7675.36 1427.59   2
  -3   7   0 11033.4 1398.66   1
  -4  -3   0 9812.36 1263.92   4
  -4  -3   0 9660.62 886.793   3
   4   3   0 8736.18 992.332   1
  -7   4   0 8538.65 1468.95   1
   4   3   0 12555.4 1373.01   2
  -7   4   0 11272.9 1158.27   2
  -4  -3   1 19418.3 1711.95   4
   3  -7   1 19377.7 2118.86   4
  -4  -3   1 17224.6 934.044   3
   4   3   1 18982.5 1211.71   1
  -7   4   1 18567.0 1934.31   1
   4   3   1 18976.4 1249.75   1
  -3   7   1 20389.2 2071.89   2
   4   3   1 19466.2 1801.83   2
  -3   7   1 18695.5 1721.53   1
  -7   4   1 21628.6 1375.58   2
  -3   7   2 12910.4 1504.60   1
  -3   7   2 11283.8 1639.48   2
   4   3   2 10565.7 1429.97   2
   4   3   2 9177.38 659.135   1
  -4  -3   2 11073.3 1419.22   4
   3  -7   2 11138.1 1733.60   4
   4   3   2 11167.0 740.105   1
  -7   4   2 11088.5 823.507   2
  -4  -3   3 39044.7 2555.79   4
   3  -7   3 36820.8 2957.45   4
  -3   7   3 35829.8 2363.62   1
  -3   7   3 35689.5 2740.08   2
   4   3   3 35110.3 2584.23   2
  -3   7   4 5303.39 1284.59   2
  -4  -3   4 5359.81 1248.98   4
   4   3   4 3879.09 1272.76   2
   3  -7   4 9289.95 1580.93   4
  -3   7   4 7188.99 1204.19   1
  -3   7   5 9386.67 1595.75   2
  -4  -3   5 10081.2 1573.36   4
   3  -7   5 6874.08 1571.10   4
   4   3   5 9177.09 1610.52   2
  -3   7   6 6404.87 1420.61   2
  -4  -3   6 4840.14 1532.93   4
   3  -7   6 2507.30 1146.32   4
   4   3   6 2863.94 1209.68   2
  -3   7   7 4547.13 1230.67   2
  -4  -3   7 4420.62 1194.28   4
   3  -7   7 2771.20 1456.08   4
  -3   7   8 3099.61 869.601   2
  -3  -4  -7 5375.14 1204.94   3
  -3  -4  -6 5945.89 1334.43   3
   3   4  -6 3462.57 1180.38   1
  -4   7  -6 7705.70 1564.38   1
   3   4  -5 11035.2 1388.41   2
  -3  -4  -5 7446.90 1480.13   3
  -4   7  -5 9819.93 1552.50   1
   3   4  -5 10042.7 1603.71   1
  -7   3  -5 11292.4 1458.11   1
   3   4  -4 6681.32 1120.70   2
  -3  -4  -4 5208.07 1089.07   3
  -4   7  -4 5727.66 1299.75   1
   3   4  -4 6251.86 1255.55   1
  -7   3  -4 4561.12 1025.69   1
  -4   7  -3 38677.9 2763.67   1
  -3  -4  -3 33293.8 2248.30   3
   3   4  -3 36414.0 2532.90   1
   3   4  -3 36481.1 2271.69   2
  -7   3  -3 36257.7 2384.85   1
   3   4  -2 10830.4 1386.41   2
   7  -3  -2 11044.6 707.263   4
  -3  -4  -2 11595.4 1221.83   3
  -4   7  -2 10071.5 1481.11   1
   3   4  -2 12220.7 1417.92   1
  -7   3  -2 9991.90 1349.68   1
  -3  -4  -1 21547.9 1407.70   3
   3   4  -1 22129.7 1705.78   1
  -7   3  -1 19429.0 1856.43   1
   3   4  -1 20379.8 1784.39   2
  -7   3  -1 18511.6 1564.22   2
  -4   7  -1 20738.4 1925.63   1
   3   4   0 10494.0 1370.54   2
  -4   7   0 8688.61 1365.78   1
   3   4   0 9857.54 1051.73   1
  -3  -4   0 12469.6 1492.50   4
  -7   3   0 10758.3 1029.49   2
  -3  -4   1 22893.3 1970.06   4
   3   4   1 20109.6 1236.69   1
   4  -7   1 21148.4 2108.60   4
  -4   7   1 19464.6 2032.66   2
   3   4   1 19295.9 1855.20   2
  -4   7   1 20596.7 1913.97   1
  -7   3   1 20650.0 1205.98   2
   3   4   2 10620.5 667.320   1
  -4   7   2 12499.2 1665.54   2
   3   4   2 12537.6 1561.14   2
  -3  -4   2 9568.18 1409.74   4
   4  -7   2 11069.1 1569.84   4
   3   4   2 11664.9 707.322   1
  -7   3   2 12619.7 686.566   2
  -4   7   2 12386.2 1559.41   1
  -3  -4   3 39591.2 2710.79   4
   4  -7   3 36070.4 2757.76   4
  -4   7   3 36682.6 2526.07   1
  -4   7   3 36294.1 2721.40   2
   3   4   3 37713.5 2733.81   2
  -4   7   4 3737.22 1125.61   2
   3   4   4 4939.49 1342.84   2
  -3  -4   4 5995.13 1315.50   4
   4  -7   4 5791.44 1234.64   4
   7  -3   4 5524.33 1153.11   2
  -4   7   4 5545.44 1147.59   1
  -4   7   5 8563.43 1491.16   2
  -3  -4   5 10892.2 1772.26   4
   3   4   5 8701.56 1645.58   2
   4  -7   5 13095.8 1803.93   4
   7  -3   5 9753.15 1570.95   2
  -4   7   6 4379.28 1105.04   2
  -3  -4   6 5603.71 1309.30   4
   4  -7   6 4555.70 1344.13   4
   3   4   6 3402.67 1244.10   2
  -3  -4   7 3971.81 1278.82   4
   4  -7   7 3479.15 1239.22   4
  -4   7   7 6393.25 1274.36   2
   2   5  -6 6390.06 1305.61   2
   2   5  -6 5432.87 1283.05   1
  -5   7  -6 4351.61 1142.30   1
   2   5  -5 2928.17 1021.05   2
   2   5  -5 1971.02 969.866   1
  -5   7  -5 1928.84 918.573   1
  -5   7  -4 43206.5 3079.28   1
   2   5  -4 39093.5 2886.59   1
  -7   2  -4 39468.2 2320.70   1
   2   5  -4 40513.7 2639.21   2
   2   5  -3 4096.27 955.014   1
   2   5  -3 2937.03 878.681   2
  -5   7  -3 2232.71 1015.68   1
  -7   2  -3 2745.80 799.880   1
   2   5  -2 25029.5 2015.67   1
   2   5  -2 19768.3 1908.98   2
  -5   7  -2 24734.7 2229.33   1
   2   5  -1 1907.25 852.912   2
  -5   7  -1 1898.21 978.383   1
   2   5  -1 2247.73 687.920   1
   2   5   0 30174.4 1832.49   1
   2   5   0 30242.8 2291.09   2
  -7   2   0 30266.7 1726.14   2
  -5   7   0 30754.1 2388.95   1
  -5   7   1 1207.13 889.322   1
  -5   7   1 1747.03 848.252   2
   2   5   1 2200.53 832.618   2
  -7   2   1 2014.02 431.624   2
  -2  -5   1 1882.86 1058.76   4
   5  -7   1 2311.53 892.526   4
   7  -2   1 1416.55 692.966   2
   2   5   1 1132.30 431.925   1
   7  -2   2 25020.6 1974.51   2
  -2  -5   2 23987.3 2246.97   4
   5  -7   2 23915.2 2067.90   4
  -7   2   2 19223.9 673.329   2
  -5   7   2 24336.2 2188.87   2
  -5   7   2 23280.8 2244.85   1
   2   5   2 26715.4 2298.33   2
   2   5   2 21811.2 1132.63   1
  -5   7   3 1941.56 911.623   2
   2   5   3 4399.27 1208.85   2
   5  -7   3 2956.80 923.979   4
  -2  -5   3 2655.51 976.679   4
   7  -2   3 2719.83 847.897   2
  -5   7   3 3980.76 1091.74   1
   7  -2   4 39971.5 2826.38   2
   5  -7   4 46428.1 2987.48   4
  -2  -5   4 44474.0 3170.21   4
  -5   7   4 39339.9 2775.74   2
   2   5   4 43108.9 3129.47   2
  -5   7   5 1303.63 789.108   2
   2   5   5 2162.44 1000.42   2
   5  -7   5 1558.42 743.654   4
  -2  -5   5 474.630 999.984   4
   7  -2   5 1218.60 676.492   2
  -5   7   6 5369.71 1187.30   2
   5  -7   6 6573.50 1475.00   4
  -2  -5   6 6437.86 1399.12   4
   2   5   6 7318.27 1501.44   2
   7  -2   6 5732.76 1422.73   2
   5  -7   7-1849.29 1112.67   4
   1   6  -6 1768.47 1163.36   2
  -6   7  -6 2542.97 1129.90   1
   1   6  -6 4637.93 1352.62   1
   1   6  -5 10342.0 1664.56   2
  -6   7  -5 9766.51 1712.45   1
   1   6  -5 10986.0 1723.70   1
   1   6  -4 9017.84 1543.67   2
  -6   7  -4 11026.3 1739.56   1
   1   6  -4 10053.6 1611.21   1
   1   6  -3 39325.2 2715.53   1
   1   6  -3 37788.1 2763.66   2
  -6   7  -3 31948.6 2676.46   1
   1   6  -2 8907.19 1497.63   2
  -6   7  -2 9144.91 1496.68   1
   1   6  -2 8733.72 1379.38   1
   7  -1  -1 20708.5 1281.87   2
   1   6  -1 21389.7 1834.62   1
   1   6  -1 21039.3 2099.82   2
  -6   7  -1 20923.1 2108.73   1
   7  -1   0 8946.08 1042.19   2
  -6   7   0 9474.46 1536.63   1
   1   6   0 10301.1 1571.94   2
   1   6   0 11436.2 1252.06   1
  -7   1   0 8951.91 1082.49   2
   1   6   1 19342.8 1452.41   1
   6  -7   1 19139.2 1737.89   4
  -1  -6   1 16069.7 2053.79   4
   1   6   1 17119.3 1988.59   2
  -6   7   1 16992.7 1941.60   1
   7  -1   1 15948.7 1532.34   2
  -6   7   2 10468.2 1556.00   2
   1   6   2 9649.43 1555.12   2
   6  -7   2 8059.71 1235.92   4
  -1  -6   2 9022.05 1626.62   4
   7  -1   2 11093.0 1433.24   2
  -6   7   2 13497.7 1732.78   1
   1   6   2 10763.6 1002.04   1
   6  -7   3 35465.1 2389.10   4
  -1  -6   3 39476.9 3062.18   4
  -6   7   3 36262.2 2877.26   1
  -6   7   3 38297.0 2651.77   2
   1   6   3 37154.1 2882.86   2
   7  -1   3 35634.4 2587.61   2
  -6   7   4 6979.37 1266.29   2
   1   6   4 5075.23 1308.69   2
   6  -7   4 7274.50 1251.44   4
  -1  -6   4 11158.1 1673.83   4
   7  -1   4 10603.9 1609.26   2
  -6   7   5 8135.19 1338.48   2
   1   6   5 11706.8 1812.46   2
   6  -7   5 9603.02 1524.99   4
  -1  -6   5 9794.59 1695.25   4
   7  -1   5 9736.17 1732.49   2
   6  -7   6 3123.68 907.465   4
   1   6   6 2818.89 1285.18   2
  -1  -6   6 3743.69 1158.39   4
   7  -1   6 5710.60 1380.52   2
   6  -7   7 2621.23 1143.56   4
  -7   7  -6 291.100 1004.31   1
   0   7  -5 7958.04 1654.34   2
   0   7  -5 6262.57 1469.27   1
  -7   7  -5 10275.9 1705.31   1
   0   7  -4 4564.96 1395.23   2
   0   7  -4 1748.00 823.328   1
  -7   7  -4 3774.94 1072.52   1
   0   7  -3 15486.7 2023.96   2
  -7   7  -3 15650.5 2105.24   1
   0   7  -3 14994.7 1858.48   1
   0   7  -2 22494.8 2165.36   1
   0   7  -2 24000.0 2439.12   2
  -7   7  -2 27689.7 2562.41   1
  -7   7  -1 12614.4 1894.45   1
   0   7  -1 13224.4 1777.67   2
   0   7  -1 13952.9 1644.67   1
   7   0  -1 12593.1 1121.61   2
   0   7   0 1257.77 962.129   2
   7  -7   0 174.094 575.777   4
   7   0   0 1654.15 616.157   2
   0   7   0 534.703 604.438   1
  -7   7   0 1501.88 924.181   1
   0   7   1 12436.5 1796.77   2
   7  -7   1 13084.3 1326.95   4
   0  -7   1 12850.2 1933.78   4
  -7   7   1 13067.0 1827.56   1
   7   0   1 16314.7 1579.38   2
   0   7   1 12232.9 1344.02   1
   7  -7   2 21404.8 1666.13   4
   0  -7   2 23863.6 2511.31   4
  -7   7   2 23079.8 2093.92   2
  -7   7   2 20674.7 2351.51   1
   0   7   2 19743.3 2228.39   2
   0   7   2 26376.3 1747.94   1
   7   0   2 21728.2 1946.72   2
  -7   7   3 12767.1 1556.06   2
   7  -7   3 13336.6 1397.96   4
   0  -7   3 14453.0 1963.01   4
   7   0   3 12826.6 1647.95   2
  -7   7   3 15954.2 2067.81   1
   0   7   3 18026.8 2119.29   2
  -7   7   4 2913.07 751.781   2
   0   7   4 2769.64 1003.11   2
   7  -7   4 2379.90 772.713   4
   0  -7   4 3870.73 1365.13   4
   7   0   4 3368.72 1164.71   2
   0   7   5 6953.86 1560.94   2
   0  -7   5 8026.25 1755.11   4
   7   0   5 10712.2 1807.00   2
  -1   8  -5-786.336 1286.96   2
  -8   7  -5 138.768 1126.30   1
  -7  -1  -5-2228.22 943.406   3
  -1   8  -4 10298.2 1992.30   2
  -8   7  -4 11122.2 1888.48   1
  -1   8  -4 10207.7 1720.64   1
  -8   7  -3-667.036 1043.35   1
  -1   8  -3 51.3917 1119.57   2
  -1   8  -3 1008.69 1062.85   1
  -8   7  -2 17822.4 2299.62   1
  -1   8  -2 23493.1 2372.61   1
  -1   8  -2 26289.9 2606.19   2
  -1   8  -1 2645.78 1310.34   2
  -1   8  -1 3544.12 1134.08   1
  -8   7  -1 2573.05 1099.06   1
  -1   8   0 11303.3 1933.56   2
   7   1   0 9361.96 1251.58   2
  -1   8   0 8647.85 1410.30   1
  -8   7   0 9075.42 1596.00   1
  -1   8   1 2845.35 1076.46   2
  -1   8   1 1664.20 621.864   1
   1  -8   1 2997.79 1170.47   4
   7   1   1 3378.39 1017.44   2
  -8   7   1 2580.69 1159.58   1
   1  -8   2 22615.8 2664.48   4
  -8   7   2 21016.6 1946.68   2
  -8   7   2 22266.0 2551.27   1
  -1   8   2 23815.7 2579.70   2
  -1   8   2 25518.5 1992.81   1
   7   1   2 25069.5 2239.61   2
  -1   8   3-30.1415 949.117   2
   1  -8   3 271.218 797.432   4
   7   1   3 1181.55 681.448   2
  -1   8   4 11011.0 1931.34   2
   1  -8   4 10476.7 1926.33   4
   7   1   4 9831.57 1661.43   2
   7   1   5-1259.21 1049.33   2
  -8   6  -6 1657.18 971.648   1
  -8   6  -5 7579.85 1546.60   1
  -6  -2  -5 5856.38 1350.70   3
  -2   8  -5 8108.35 1569.35   1
  -8   6  -4 6863.61 1363.59   1
  -6  -2  -4 4190.32 1251.08   3
  -2   8  -4 4583.38 1180.32   1
  -2   8  -3 19918.7 2441.18   2
  -2   8  -3 21471.4 2295.46   1
  -6  -2  -3 23399.3 2108.45   3
  -8   6  -3 21189.5 2260.34   1
  -2   8  -2 8345.80 1758.00   2
  -6  -2  -2 5098.85 905.886   4
  -2   8  -2 5337.82 1310.86   1
  -8   6  -2 4560.54 1232.90   1
  -2   8  -1 16881.7 1887.60   1
  -2   8  -1 15261.7 2051.01   2
  -6  -2  -1 13125.8 1286.96   4
   6   2  -1 14200.9 1388.35   2
  -8   6  -1 14390.0 1930.88   1
  -2   8   0 7630.90 1535.77   2
   6   2   0 8500.36 1222.33   2
  -6  -2   0 6868.11 944.005   4
  -2   8   0 6852.33 1298.41   1
  -8   6   0 9162.06 1583.55   1
  -2   8   1 12338.7 1901.40   2
  -6  -2   1 12483.9 1299.80   4
  -2   8   1 12814.9 1614.74   1
   6   2   1 10203.7 1432.68   2
   2  -8   1 10721.2 1841.55   4
  -8   6   1 11712.3 1852.53   1
  -8   6   2 3867.99 934.092   2
  -2   8   2 7888.26 1278.06   1
  -2   8   2 9872.41 1713.66   2
  -6  -2   2 6226.11 1021.58   4
   6   2   2 7069.31 1281.50   2
   2  -8   2 7751.47 1683.34   4
  -6  -2   3 20421.6 1772.67   4
   2  -8   3 20663.8 2522.22   4
   6   2   3 16216.5 1934.38   2
  -2   8   3 22020.2 1934.13   1
  -2   8   3 23809.9 2497.62   2
  -2   8   4 4705.47 1382.30   2
  -6  -2   4 4387.17 1037.75   4
   2  -8   4 4986.44 1399.96   4
   6   2   4 4572.03 1275.62   2
  -2   8   5 4805.32 1483.53   2
  -6  -2   5 8412.35 1512.49   4
   2  -8   5 5001.26 1569.48   4
   6   2   5 8024.95 1643.44   2
  -6  -2   6 1039.05 679.797   4
  -8   5  -6 850.494 833.556   1
  -5  -3  -6 398.417 599.145   3
  -8   5  -5 9307.59 1558.47   1
   5   3  -5 9698.71 1553.40   1
  -5  -3  -5 7702.24 1697.89   3
  -3   8  -5 7029.02 1575.67   1
  -8   5  -4 6837.84 1374.00   1
   5   3  -4 6820.09 1478.94   1
  -5  -3  -4 5512.15 1295.83   3
  -3   8  -4 6120.12 1349.39   1
   5   3  -3 8709.83 1490.01   1
  -5  -3  -3 10732.8 1449.00   3
  -3   8  -3 11550.4 1715.28   1
  -8   5  -3 13105.8 1757.23   1
   5   3  -2 6255.74 1001.04   2
  -3   8  -2 5890.46 1270.47   1
  -5  -3  -2 6809.19 1080.18   3
   5   3  -2 8178.19 1309.16   1
  -8   5  -2 6420.58 1252.66   1
  -5  -3  -1 27442.3 2106.60   4
  -5  -3  -1 29591.0 1868.64   3
  -3   8  -1 28750.3 2649.20   2
   5   3  -1 27631.0 2058.78   1
  -8   5  -1 27847.1 2444.50   1
   5   3  -1 23775.0 1906.67   2
  -3   8  -1 26264.4 2341.92   1
  -3   8   0 7153.67 1587.98   2
   5   3   0 6580.99 1103.99   2
  -3   8   0 7375.23 1346.20   1
  -5  -3   0 6553.94 1085.17   4
  -5  -3   0 7871.19 896.414   3
  -8   5   0 7307.60 1468.15   1
   5   3   0 6239.36 916.270   1
  -5  -3   1 25584.8 1982.37   4
   3  -8   1 27171.6 2649.82   4
  -5  -3   1 24396.0 1247.55   3
   5   3   1 27427.3 1607.68   1
  -8   5   1 28305.5 2546.46   1
  -3   8   1 22725.5 2326.98   2
   5   3   1 24919.2 2139.02   2
  -3   8   1 27285.7 2294.44   1
  -3   8   2 6437.06 1263.81   1
  -3   8   2 5522.34 1384.12   2
   5   3   2 7158.78 1321.71   2
  -5  -3   2 5294.16 1022.57   4
   3  -8   2 7991.83 1555.71   4
  -3   8   3 10527.6 1732.96   2
  -5  -3   3 9152.93 1453.39   4
   5   3   3 11338.7 1696.23   2
   3  -8   3 8245.99 1680.27   4
  -3   8   3 12832.4 1552.27   1
  -3   8   4 7077.67 1512.56   2
  -5  -3   4 5907.48 1249.56   4
   3  -8   4 6701.72 1641.69   4
   5   3   4 4733.44 1392.72   2
  -3   8   4 6353.69 1238.09   1
  -3   8   5 7600.74 1748.48   2
  -5  -3   5 9347.75 1555.47   4
   3  -8   5 6087.99 1471.46   4
   5   3   5 8977.73 1756.69   2
  -3   8   6-2319.79 1204.95   2
  -5  -3   6-376.020 801.205   4
  -4  -4  -6 12890.9 1821.16   3
   4   4  -5 248.678 775.092   1
  -4  -4  -5-527.183 966.141   3
  -4   8  -5 572.041 1033.63   1
  -8   4  -5-65.5709 814.671   1
   4   4  -4 3940.77 1282.54   1
  -4  -4  -4 5284.55 1306.39   3
  -4   8  -4 6392.03 1372.77   1
  -8   4  -4 5078.47 1175.55   1
   4   4  -3 166.643 620.255   1
   4   4  -3 1122.51 725.952   2
  -4   8  -3 1096.20 818.957   1
  -4  -4  -3 998.311 649.822   3
  -8   4  -3-96.1946 737.921   1
  -4  -4  -2 25156.6 1833.79   3
   4   4  -2 22556.3 2057.60   1
  -8   4  -2 23764.8 2200.98   1
   4   4  -2 23479.4 1934.32   2
  -4   8  -2 20964.0 2200.28   1
   4   4  -1 342.711 698.009   2
  -4   8  -1-187.848 846.912   1
  -4  -4  -1 879.864 504.730   3
   4   4  -1 1416.46 587.069   1
  -8   4  -1 1007.26 725.363   1
  -4  -4   0 41735.3 2719.76   4
   4   4   0 39563.6 2175.36   1
  -4  -4   0 45119.1 1776.45   3
  -4   8   0 46400.1 3247.86   2
   4   4   0 38434.0 2567.31   2
  -4   8   0 44102.2 2920.93   1
  -4   8   1 1534.73 1099.16   2
  -4   8   1-52.1363 991.539   1
   4   4   1 1869.41 938.930   2
  -4  -4   1 1340.38 918.779   4
   4  -8   1 970.754 936.728   4
   4   4   1 840.144 401.336   1
  -4  -4   2 22209.8 2133.60   4
   4  -8   2 25488.5 2479.20   4
  -4   8   2 25654.0 2503.47   2
  -4   8   2 24919.1 2277.92   1
   4   4   2 25038.6 2259.64   2
  -4   8   3 389.915 952.192   2
   4   4   3 19.2724 661.675   2
  -4  -4   3 1091.27 654.628   4
   4  -8   3 1079.87 761.955   4
  -4   8   3-35.3833 784.915   1
  -4   8   4 5318.72 1416.59   2
   4   4   4 3731.43 1160.48   2
  -4  -4   4 5780.67 1299.94   4
   4  -8   4 3915.71 1320.72   4
  -4   8   4 5165.50 1298.83   1
  -4   8   5 603.857 1067.84   2
  -4  -4   5-2244.61 1212.87   4
   4  -8   5-6.07665 1086.25   4
   4   4   5 988.824 948.865   2
  -4   8   6 10834.5 1868.37   2
  -4  -4   6 12072.5 1840.42   4
   4  -8   6 13774.2 2211.34   4
  -4   8   7 815.484 1070.03   2
   3   5  -5 9443.48 1567.23   1
  -5   8  -5 6419.57 1443.31   1
   3   5  -4 8536.04 1454.33   2
   3   5  -4 3567.14 1224.03   1
  -5   8  -4 8440.17 1673.67   1
  -8   3  -4 5322.74 1155.88   1
   3   5  -3 11534.4 1602.54   2
   3   5  -3 11083.5 1599.62   1
  -5   8  -3 10779.0 1761.44   1
  -8   3  -3 9723.31 1390.34   1
   3   5  -2 5990.00 1126.64   1
   3   5  -2 7948.72 1331.94   2
  -5   8  -2 7803.71 1449.23   1
  -8   3  -2 5055.83 1165.08   1
   3   5  -1 23620.1 1931.19   1
   3   5  -1 24446.5 2130.86   2
  -5   8  -1 24430.9 2345.06   1
  -5   8   0 7734.99 1548.16   2
  -5   8   0 6369.52 1310.79   1
   3   5   0 6346.56 1216.69   2
  -3  -5   0 7443.57 1448.52   4
   3   5   0 6366.66 963.291   1
   3   5   1 29133.8 1631.81   1
  -3  -5   1 26936.7 2419.36   4
   5  -8   1 27514.1 2410.55   4
  -5   8   1 24683.3 2454.65   2
   3   5   1 28269.3 2456.11   2
  -5   8   1 28790.4 2481.34   1
  -5   8   2 5036.21 1355.64   2
   3   5   2 5178.17 1223.60   2
  -3  -5   2 7727.78 1419.26   4
   5  -8   2 7957.49 1494.00   4
  -5   8   2 6304.58 1290.65   1
  -5   8   3 10382.4 1621.67   2
   3   5   3 10121.9 1765.27   2
  -3  -5   3 8763.62 1579.61   4
   5  -8   3 9878.40 1648.24   4
  -5   8   3 8899.18 1548.62   1
  -5   8   4 8391.22 1489.46   2
   3   5   4 6111.67 1447.25   2
  -3  -5   4 7379.93 1636.71   4
   5  -8   4 7068.75 1504.87   4
  -5   8   4 7983.49 1584.53   1
  -5   8   5 11204.7 1850.08   2
   3   5   5 8417.96 1851.99   2
  -3  -5   5 7611.48 1546.33   4
   5  -8   5 5093.44 1534.27   4
  -5   8   6 1050.55 895.548   2
  -3  -5   6-1357.03 1013.00   4
   5  -8   6 1202.31 777.469   4
   2   6  -5 6223.19 1452.05   2
  -6   8  -5 7574.49 1639.01   1
   2   6  -5 10074.2 1676.30   1
   2   6  -4 4341.77 1200.82   2
  -6   8  -4 5053.02 1341.41   1
   2   6  -4 5104.34 1389.54   1
  -6   8  -3 18683.9 2254.92   1
   2   6  -3 19168.2 2070.53   1
   2   6  -3 22738.4 2243.33   2
   2   6  -2 6638.93 1420.92   2
  -6   8  -2 6943.44 1412.11   1
   2   6  -2 7143.61 1240.46   1
  -6   8  -1 8941.90 1709.80   1
   2   6  -1 11448.4 1716.33   2
   2   6  -1 12205.3 1448.52   1
   2   6   0 8883.33 1182.24   1
  -6   8   0 7698.49 1537.99   1
   2   6   0 7312.61 1513.30   2
  -2  -6   0 9240.02 1578.07   4
   8  -2   1 12176.3 1395.72   2
  -6   8   1 15266.5 1931.13   2
   2   6   1 12706.8 1160.42   1
   2   6   1 13106.2 1805.60   2
   6  -8   1 16655.4 1883.35   4
  -2  -6   1 13277.6 1897.48   4
  -6   8   1 15451.3 2009.51   1
  -6   8   2 5733.74 1366.66   2
   2   6   2 5451.25 1413.68   2
   6  -8   2 3747.08 1069.32   4
  -2  -6   2 5907.78 1347.47   4
   8  -2   2 3760.89 975.347   2
  -6   8   2 5769.85 1287.38   1
   8  -2   3 18184.3 1975.20   2
   6  -8   3 18238.9 1986.38   4
  -2  -6   3 20772.0 2356.93   4
  -6   8   3 23107.1 2497.46   1
  -6   8   3 18709.9 2189.87   2
   2   6   3 22887.1 2391.44   2
  -6   8   4 6033.04 1432.73   2
   2   6   4 4594.88 1412.44   2
   6  -8   4 6649.92 1432.63   4
  -2  -6   4 4835.02 1406.93   4
   8  -2   4 4101.77 1197.18   2
  -6   8   5 5757.73 1383.12   2
   2   6   5 5092.92 1528.07   2
   6  -8   5 5692.97 1342.38   4
  -2  -6   5 5374.31 1476.66   4
   8  -2   5 5393.51 1383.41   2
   6  -8   6 3153.58 1121.52   4
   1   7  -5 1851.63 894.096   2
   1   7  -5 1092.30 767.527   1
   1   7  -4 8078.87 1716.02   2
  -7   8  -4 8600.54 1696.46   1
   1   7  -4 10300.4 1696.17   1
   1   7  -3-578.925 1164.60   2
  -7   8  -3-104.216 719.375   1
   1   7  -3 436.043 1115.89   1
   1   7  -2 21068.9 2168.16   1
   1   7  -2 26799.3 2595.61   2
  -7   8  -2 20328.6 2307.91   1
  -7   8  -1 3099.82 1371.85   1
   1   7  -1 3337.04 1196.90   2
   1   7  -1 1696.43 813.040   1
  -7   8   0 11822.9 1830.11   1
   1   7   0 13121.8 1826.53   2
   7  -8   0 10565.1 1560.21   4
  -1  -7   0 8373.04 1719.86   4
   8  -1   0 9442.08 1138.86   2
   1   7   0 11215.5 1360.79   1
  -7   8   1 1894.41 1040.49   2
   1   7   1 1366.88 1012.47   2
   7  -8   1 1675.58 877.442   4
  -1  -7   1 2107.05 1226.81   4
   1   7   1 1984.06 673.187   1
   8  -1   1 3118.42 930.445   2
  -7   8   1 2667.12 1247.87   1
   8  -1   2 20889.0 2031.05   2
   7  -8   2 22199.0 1952.77   4
  -1  -7   2 23459.8 2618.78   4
  -7   8   2 24796.0 2413.83   2
  -7   8   2 25816.8 2642.20   1
   1   7   2 21223.9 2353.70   2
  -7   8   3 18.7328 866.781   2
   1   7   3 133.807 1082.57   2
   7  -8   3 960.499 721.054   4
  -1  -7   3-1820.84 1056.76   4
   8  -1   3 304.337 810.186   2
  -7   8   3-321.374 873.901   1
  -7   8   4 5975.68 1369.05   2
   1   7   4 10123.8 1857.95   2
   7  -8   4 10962.2 1538.37   4
  -1  -7   4 9466.42 1802.69   4
   8  -1   4 9616.91 1599.66   2
   8  -1   5-591.078 1194.72   2
   0   8  -5-122.063 1423.40   2
   0   8  -4 2205.06 1291.72   2
   0   8  -4 2483.73 1128.57   1
   0   8  -3 5486.38 1619.50   2
  -8   8  -3 7801.10 1739.87   1
   0   8  -3 7093.46 1634.69   1
  -8   8  -2 1503.99 946.268   1
   0   8  -2 3624.77 1264.86   2
   0   8  -2 2276.88 1047.25   1
   0   8  -1 17276.1 1914.72   1
   0   8  -1 16578.1 2153.44   2
  -8   8  -1 15264.1 2237.14   1
   0   8   0 10867.7 1985.59   2
   0  -8   0 11413.0 1952.11   4
   0   8   0 10871.8 1443.92   1
  -8   8   0 9294.08 1803.67   1
   0   8   1 16162.3 2220.40   2
   0  -8   1 13182.3 1990.52   4
  -8   8   1 14008.4 2156.19   1
   8   0   1 13849.7 1539.04   2
  -8   8   2 1062.52 768.965   2
   0   8   2 1191.18 1172.26   2
   0  -8   2 1448.59 1025.38   4
   8   0   2 1414.38 868.611   2
  -8   8   2 12.4924 1207.21   1
   0   8   3 7920.92 1688.88   2
   0  -8   3 8217.71 1901.63   4
   8   0   3 3976.21 1174.43   2
  -8   8   3 6008.37 1506.12   1
   8   0   4 2939.56 1078.07   2
  -1   9  -3 8049.83 1470.85   1
  -1   9  -2 942.418 1245.69   2
  -1   9  -2 2468.49 1157.53   1
  -1   9  -1 6972.43 1791.12   2
  -1   9  -1 10131.7 1737.02   1
  -9   8  -1 9151.25 1795.67   1
  -1   9   0 8123.98 1881.65   2
  -1   9   0 5606.33 1326.92   1
   1  -9   0 3661.20 1535.11   4
  -9   8   0 7741.14 1695.81   1
  -1   9   1 14052.7 2181.93   2
   1  -9   1 10773.0 2252.90   4
  -9   8   1 9511.22 2010.55   1
   8   1   2 1843.33 899.568   2
   8   1   3 2143.00 1067.88   2
   8   1   4 3517.21 1165.25   2
  -9   7  -4-268.728 994.233   1
  -7  -2  -4 2741.42 1122.46   3
  -2   9  -3 6023.89 1667.76   2
  -7  -2  -3 8034.17 1479.27   3
  -2   9  -3 8649.46 1599.12   1
  -9   7  -3 8549.62 1833.15   1
  -2   9  -2 6078.43 1494.24   1
  -9   7  -2 6750.35 1548.51   1
  -2   9  -1 7646.36 1753.17   2
  -2   9  -1 10215.0 1674.57   1
  -9   7  -1 9837.59 1876.46   1
  -2   9   0 237.045 1127.75   2
  -2   9   0 536.144 873.508   1
   7   2   0 707.002 644.617   2
   2  -9   0-358.610 1096.56   4
  -9   7   0 659.765 1041.69   1
  -2   9   1 10611.1 1958.32   2
  -2   9   1 10443.9 1578.03   1
   7   2   1 9310.86 1469.38   2
   2  -9   1 10985.7 2014.09   4
  -9   7   1 12766.0 2088.32   1
  -2   9   2 8072.17 1631.96   2
   2  -9   2 6068.98 1623.58   4
   7   2   2 6685.35 1378.46   2
  -2   9   3 6195.42 1805.95   2
   2  -9   3 7480.89 1992.72   4
   7   2   3 7222.89 1518.16   2
   7   2   4 1887.11 1104.21   2
  -6  -3  -5-1168.17 952.530   3
  -9   6  -5 217.252 1085.93   1
  -6  -3  -4 6411.24 1457.32   3
  -3   9  -4 10703.9 1901.99   1
   6   3  -4 6307.88 1481.82   1
  -9   6  -4 7912.14 1712.48   1
  -3   9  -3 559.344 1216.90   2
   6   3  -3 547.463 993.149   1
  -6  -3  -3-950.449 728.219   3
  -3   9  -3-100.678 673.831   1
  -9   6  -3 1266.62 1100.30   1
  -3   9  -2 15396.2 2395.08   2
   6   3  -2 12674.3 1705.48   1
  -3   9  -2 11338.3 1800.03   1
  -6  -3  -2 12704.3 1525.82   3
  -9   6  -2 9290.17 1707.33   1
  -3   9  -1-403.719 935.449   2
   6   3  -1-235.429 735.929   2
  -3   9  -1 294.067 1034.92   1
  -6  -3  -1-1906.33 794.583   4
   6   3  -1 578.202 298.000   1
  -9   6  -1-1042.54 945.740   1
  -3   9   0 15630.6 2253.04   2
  -6  -3   0 16229.8 1626.40   4
  -3   9   0 15856.1 2053.73   1
   6   3   0 18779.7 1655.87   1
  -9   6   0 15558.6 2109.16   1
   6   3   0 16101.3 1775.06   2
  -3   9   1-2141.44 1251.18   2
  -3   9   1-472.910 983.182   1
   6   3   1 260.093 729.592   2
  -6  -3   1 207.448 371.656   4
   3  -9   1-58.0293 1089.09   4
  -9   6   1 901.129 888.452   1
  -3   9   2 9960.38 1544.12   1
  -3   9   2 13205.2 2176.19   2
  -6  -3   2 12479.4 1568.78   4
   6   3   2 13660.8 1778.53   2
   3  -9   2 11176.5 2045.67   4
  -3   9   3 1359.96 956.155   2
  -6  -3   3 332.437 696.490   4
   6   3   3 350.174 1071.59   2
   3  -9   3-2143.02 1113.05   4
  -3   9   3 641.376 681.022   1
  -3   9   4 8044.79 2015.56   2
  -6  -3   4 9605.93 1427.60   4
   3  -9   4 7906.14 1893.96   4
   6   3   4 9389.59 1691.29   2
  -6  -3   5-493.184 1206.40   4
  -5  -4  -5 6578.45 1435.84   3
  -9   5  -5 5347.33 1556.62   1
   5   4  -4 2216.23 938.132   1
  -5  -4  -4 507.958 935.211   3
  -4   9  -4 1847.33 1056.88   1
  -9   5  -4 545.676 757.414   1
   5   4  -3 1257.36 843.955   1
  -4   9  -3 1606.93 901.601   1
  -5  -4  -3 3245.53 878.279   3
  -9   5  -3 2561.34 1035.59   1
   5   4  -2 4685.75 1007.14   2
  -4   9  -2 5561.62 1320.31   1
  -5  -4  -2 5275.44 941.708   3
  -9   5  -2 3262.19 1210.59   1
   5   4  -2 3192.64 981.059   1
  -4   9  -1 20595.6 2506.26   2
  -5  -4  -1 15625.3 1781.41   4
   5   4  -1 20913.9 1895.86   1
  -9   5  -1 18636.4 2143.34   1
   5   4  -1 18674.3 1939.97   2
  -4   9  -1 18885.1 2261.02   1
  -4   9   0 6944.72 1641.51   2
  -4   9   0 5872.31 1423.06   1
   5   4   0 5865.99 1249.07   2
   5   4   0 6013.31 965.390   1
  -5  -4   0 5494.68 1059.88   4
  -4   9   1 20389.1 2483.46   2
  -5  -4   1 17562.4 1910.90   4
   4  -9   1 20733.4 2464.03   4
   5   4   1 15985.1 1964.26   2
  -4   9   1 20355.8 2215.56   1
  -4   9   2 7160.73 1661.68   2
   5   4   2 2932.92 1084.31   2
  -5  -4   2 4488.89 1122.12   4
   4  -9   2 6742.75 1345.87   4
  -4   9   2 3178.52 1083.73   1
  -4   9   3 2609.62 1229.17   2
   5   4   3 3457.08 1308.91   2
  -5  -4   3 1992.76 957.756   4
   4  -9   3 3537.86 1253.34   4
  -4   9   3 3066.54 1092.97   1
  -4   9   4 149.696 1124.19   2
  -5  -4   4 1581.98 1110.21   4
   5   4   4-1378.30 1068.78   2
   4  -9   4 371.607 1195.68   4
  -4   9   4 1036.95 941.290   1
  -4   9   5 6490.21 1774.44   2
  -5  -4   5 6846.63 1403.09   4
   4   5  -4 787.031 871.143   1
  -5   9  -4 1198.73 996.029   1
  -9   4  -4 183.528 1054.67   1
   4   5  -3 2124.64 981.757   2
   4   5  -3 4092.15 1103.95   1
  -5   9  -3 3697.34 1318.06   1
  -9   4  -3 3356.51 1148.32   1
   4   5  -2 2790.89 877.170   1
   4   5  -2 3099.64 908.604   2
  -5   9  -2 4095.98 1227.39   1
  -9   4  -2 4538.58 1233.30   1
  -4  -5  -1 16677.7 2046.17   4
   4   5  -1 18503.0 1743.02   1
  -5   9  -1 22115.6 2501.81   2
   4   5  -1 17917.1 2020.62   2
  -5   9  -1 20235.9 2385.28   1
  -5   9   0 5971.37 1565.80   2
  -5   9   0 5621.94 1427.50   1
   4   5   0 4016.31 1165.59   2
  -4  -5   0 4502.25 1319.45   4
   4   5   0 6261.49 997.594   1
  -5   9   1 19007.5 2327.10   1
  -5   9   1 19423.6 2381.18   2
  -4  -5   1 16023.0 2060.12   4
   5  -9   1 17186.4 2204.89   4
   4   5   1 19925.5 2160.03   2
  -5   9   2 4841.89 1421.40   2
   4   5   2 4253.97 1374.53   2
  -4  -5   2 3251.57 1097.56   4
   5  -9   2 2800.85 1263.65   4
  -5   9   2 5065.44 1366.95   1
  -5   9   3 3830.82 1355.36   2
   4   5   3 2408.73 1093.08   2
  -4  -5   3 720.702 1130.15   4
   5  -9   3 2438.57 1166.23   4
  -5   9   3 719.003 1183.17   1
  -5   9   4 3286.92 1086.47   2
   4   5   4-260.335 1149.62   2
  -4  -5   4-498.111 878.869   4
   5  -9   4 352.690 744.932   4
  -5   9   4 817.163 962.068   1
  -5   9   5 2131.13 1403.43   2
  -4  -5   5 5911.53 1570.42   4
   5  -9   5 3389.87 1377.97   4
  -5   9   6 2254.06 1305.40   2
   3   6  -4 10281.2 1750.63   1
   3   6  -3 1063.79 919.341   2
  -6   9  -3 1092.09 926.999   1
   3   6  -3-196.406 950.577   1
   3   6  -2 14449.0 1949.20   2
  -6   9  -2 11538.3 1908.32   1
   3   6  -2 10304.6 1618.16   1
  -6   9  -1 1250.02 1197.81   1
   3   6  -1-598.291 1175.21   2
   3   6  -1 682.113 404.495   1
  -6   9   0 15046.4 2171.29   2
  -6   9   0 18283.0 2328.48   1
   3   6   0 18372.1 2198.10   2
  -3  -6   0 14302.4 2168.75   4
   6  -9   0 18014.2 2191.75   4
  -6   9   1 144.525 1013.94   2
   3   6   1 52.3158 713.714   2
  -3  -6   1 185.914 1195.92   4
   6  -9   1 264.383 906.357   4
  -6   9   1-1753.97 1085.11   1
  -6   9   2 11995.3 1959.96   2
   3   6   2 9194.23 1853.52   2
  -3  -6   2 10066.5 1828.75   4
   6  -9   2 11410.6 1796.74   4
  -6   9   2 9351.13 1896.74   1
  -6   9   3 705.236 1126.66   2
   3   6   3 997.611 985.255   2
  -3  -6   3 1376.92 1050.51   4
   6  -9   3 1009.70 860.882   4
  -6   9   3-444.796 1152.35   1
  -6   9   4 6809.49 1537.21   2
  -3  -6   4 9756.81 1865.57   4
   6  -9   4 11253.7 1944.03   4
  -6   9   4 8681.75 1767.75   1
  -6   9   5-101.777 1056.74   2
   6  -9   5-339.416 760.840   4
   2   7  -4 3311.89 1294.35   2
   2   7  -4 1615.12 908.129   1
   2   7  -3 5776.69 1512.17   2
   2   7  -3 5280.01 1410.97   1
  -7   9  -2 8949.55 1718.08   1
   2   7  -2 8222.12 1647.33   2
   2   7  -2 5726.29 1284.45   1
   2   7  -1 10561.8 1529.81   1
  -7   9  -1 13622.3 2073.64   1
   2   7  -1 9184.58 1707.67   2
  -7   9   0-1926.33 1258.33   1
   2   7   0 663.809 1095.41   2
  -2  -7   0 1197.05 1020.16   4
   7  -9   0 1178.32 911.938   4
  -7   9   1 9364.80 1854.51   2
   2   7   1 11318.6 1714.01   2
   7  -9   1 11653.1 1578.43   4
  -2  -7   1 11412.6 1922.34   4
  -7   9   1 10165.1 1783.44   1
  -7   9   2 6026.14 1619.13   2
   2   7   2 6896.72 1579.23   2
   7  -9   2 5403.57 1207.90   4
  -2  -7   2 8909.02 1661.21   4
   9  -2   2 8453.54 1265.41   2
  -7   9   2 5535.04 1695.44   1
  -7   9   3 8164.56 1666.98   2
   2   7   3 8471.40 1819.26   2
   7  -9   3 5627.15 1244.87   4
  -2  -7   3 8767.23 1725.66   4
   9  -2   3 7854.18 1497.06   2
  -7   9   3 7689.84 1704.66   1
  -7   9   4 743.507 813.262   2
   9  -2   4-3192.53 1370.18   2
   1   8  -4 698.750 973.305   2
   1   8  -3 6005.17 1356.58   1
   1   8  -3 2195.74 1435.30   2
   1   8  -2 1280.68 1215.05   2
   1   8  -2 2488.15 1091.57   1
  -8   9  -1 9488.53 1939.38   1
   1   8  -1 8539.14 1911.21   2
   1   8  -1 8042.37 1393.39   1
   1   8   0 8228.12 1910.80   2
  -1  -8   0 7885.20 1769.74   4
  -8   9   0 5290.49 1649.98   1
  -8   9   1 8493.10 1802.81   2
   1   8   1 7945.87 1928.17   2
  -1  -8   1 8369.88 1878.67   4
  -8   9   1 8247.82 1834.94   1
  -8   9   2-148.962 1140.97   2
  -8   9   2 2555.74 1458.18   1
   9  -1   3 4063.52 1232.21   2
   9  -1   4 471.469 942.811   2
   0   9  -2 2890.00 945.808   1
  -9   9   1-354.144 448.913   2
   9   0   3-1229.63 1092.41   2
  -2  10  -1 2682.01 802.762   1
  -2  10   0 5528.57 1358.07   1
   7   3  -3 3793.08 1260.17   1
   7   3  -2 3312.50 843.572   1
  -3  10  -2 3373.95 1330.04   1
  -3  10  -1 2619.90 1399.38   1
  -3  10   0 3188.16 1101.60   1
  -3  10   1 5811.09 1326.27   1
   7   3   1 6381.25 1372.04   2
   7   3   2 761.769 964.876   2
   7   3   3 8408.45 1598.33   2
 -10   6  -4-922.386 1352.57   1
   6   4  -3 5582.28 1309.30   1
 -10   6  -3 4885.42 1481.64   1
  -4  10  -2 3433.51 1122.68   1
 -10   6  -2 1549.84 1108.94   1
   6   4  -2 582.179 534.129   1
  -4  10  -1 6448.74 1518.77   1
 -10   6  -1 6081.77 1521.35   1
  -4  10   0 6684.13 1768.54   1
   6   4   0 7151.77 1410.05   2
   4 -10   0 5012.15 1613.02   4
  -4  10   1 5183.25 1666.02   1
   6   4   1 6297.06 1301.29   2
   4 -10   1 6897.56 1715.72   4
   6   4   2 894.503 1094.70   2
  -4  10   2 879.102 995.854   1
   6   4   3 10458.0 1758.62   2
   5   5  -3 86.1736 184.281   1
 -10   5  -3-738.719 1080.10   1
   5   5  -2 6051.46 1344.38   1
  -5  -5  -2 7698.64 1545.40   4
 -10   5  -2 8293.49 1708.65   1
  -5  10  -1 1320.98 699.550   1
   5   5  -1-1059.31 756.781   2
  -5  -5  -1-388.333 942.601   4
  -5  10   0 12400.7 2370.83   2
  -5  10   0 11387.0 1950.48   1
   5   5   0 13929.5 1978.26   2
  -5  -5   0 12774.3 1836.72   4
   5 -10   0 13515.5 2231.59   4
  -5  10   1-392.802 1173.07   1
  -5  10   1-1523.92 1186.79   2
   5   5   1-645.648 846.231   2
  -5  -5   1-2468.30 1119.43   4
   5 -10   1-399.003 1034.98   4
  -5  10   2 9274.32 1789.71   2
   5   5   2 4601.07 1475.55   2
  -5  -5   2 5845.08 1401.29   4
   5 -10   2 8389.22 1668.49   4
  -5  -5   3 2819.57 1062.80   4
  -5  10   3-4818.29 1635.39   1
  -5  -5   4 3718.68 1230.74   4
   4   6  -3 6601.37 1383.06   1
   4   6  -2 328.445 1101.82   2
   4   6  -2-1431.63 853.324   1
  -6  10  -1 6753.99 1735.13   2
  -6  10  -1 7736.27 1636.78   1
   4   6  -1 5498.99 1525.56   2
  -4  -6  -1 5108.69 1451.97   4
  -6  10   0 4501.53 1418.78   2
  -6  10   0 8175.86 1756.83   1
   4   6   0 5100.45 1355.12   2
  -4  -6   0 5012.38 1413.24   4
   6 -10   0 4621.72 1454.77   4
  -6  10   1 7405.50 1805.32   2
   4   6   1 5817.26 1371.65   2
  -4  -6   1 7913.44 1647.37   4
   6 -10   1 6675.55 1576.03   4
  -6  10   1 7826.98 1713.29   1
  -6  10   2-888.430 1344.37   2
   4   6   2 2190.68 1188.15   2
  -4  -6   2-178.685 1320.54   4
   6 -10   2-256.793 1316.89   4
  -6  10   2-2220.33 1200.96   1
  -6  10   3 6859.16 1682.10   2
  -4  -6   3 7465.34 1585.17   4
   6 -10   3 6462.88 1449.42   4
  -6  10   3 7289.04 1656.52   1
  -6  10   4 901.901 1092.83   2
  -6  10   4 1184.97 1086.30   1
   3   7  -3 3930.11 1544.81   2
   3   7  -3 6749.21 1548.21   1
   3   7  -2 4791.81 1225.68   2
   3   7  -1 6203.98 1641.71   2
  -3  -7  -1 6773.28 1547.11   4
  -7  10   0 2774.99 1457.90   2
   3   7   0 454.073 848.696   2
  -3  -7   0 2279.57 983.767   4
   7 -10   0 3144.15 1063.96   4
  -7  10   1 4091.40 1565.73   2
   3   7   1 7189.56 1690.06   2
  -3  -7   1 5643.44 1545.00   4
   7 -10   1 5628.63 1378.90   4
  -7  10   2 5359.81 1287.18   2
   7 -10   2 1673.42 1096.79   4
  -7  10   3 5233.63 1564.48   2
   7 -10   3 7056.53 1744.58   4
  -8  10   0 4810.85 1614.68   2
  -8  10   1-145.241 867.304   2
  -8  10   2 9365.09 1726.44   2
   0   0   0    0.00    0.00   0

TITL hydrFe_abs in P6(3)
REM P6(3) (#173 in standard setting)
CELL 0.71073   7.946563   7.946563   7.617617  90.0000  90.0000 120.0000
ZERR    2.00   0.000251   0.000251   0.000283   0.0000   0.0000   0.0000
LATT -1
SYMM -y, x-y, z
SYMM -x+y,-x, z
SYMM -x,-y, z+1/2
SYMM  y,-x+y, z+1/2
SYMM  x-y, x, z+1/2
SFAC C H N O Fe
UNIT 6.00 16.00 4.00 12.00 2.00
TREF
HKLF 4
END
;
_shelx_hkl_checksum              49684

