####################################################################### 
# 
# This file contains crystal structure data downloaded from the 
# Cambridge Structural Database (CSD) hosted by the Cambridge 
# Crystallographic Data Centre (CCDC).
# 
# Full information about CCDC data access policies and citation 
# guidelines are available at http://www.ccdc.cam.ac.uk/access/V1 
# 
# Audit and citation data items may have been added by the CCDC. 
# Please retain this information to preserve the provenance of 
# this file and to allow appropriate attribution of the data. 
# 
#######################################################################

data_hydrmn_p21_100k
_audit_block_doi                 10.5517/ccdc.csd.cc1mk8bs
_database_code_depnum_ccdc_archive 'CCDC 1506145'
loop_
_citation_id
_citation_doi
_citation_year
1 10.1039/C6CP06648H 2016
_audit_update_record             
;
2016-09-23 deposited with the CCDC.	2023-04-05 downloaded from the CCDC.
;

_audit_creation_method           SHELXL-2014/7
_shelx_SHELXL_version_number     2014/7
_chemical_name_systematic        ?
_chemical_name_common            ?
_chemical_melting_point          ?
_chemical_formula_moiety         ?
_chemical_formula_sum            'C12 H32 Mn4 N8 O24'
_chemical_formula_weight         892.21

loop_
_atom_type_symbol
_atom_type_description
_atom_type_scat_dispersion_real
_atom_type_scat_dispersion_imag
_atom_type_scat_source
C C 0.0033 0.0016 'International Tables Vol C Tables 4.2.6.8 and 6.1.1.4'
H H 0.0000 0.0000 'International Tables Vol C Tables 4.2.6.8 and 6.1.1.4'
Mn Mn 0.3368 0.7283 'International Tables Vol C Tables 4.2.6.8 and 6.1.1.4'
N N 0.0061 0.0033 'International Tables Vol C Tables 4.2.6.8 and 6.1.1.4'
O O 0.0106 0.0060 'International Tables Vol C Tables 4.2.6.8 and 6.1.1.4'

_space_group_crystal_system      monoclinic
_space_group_IT_number           4
_space_group_name_H-M_alt        'P 21'
_space_group_name_Hall           'P 2yb'

_shelx_space_group_comment       
;
The symmetry employed for this shelxl refinement is uniquely defined
by the following loop, which should always be used as a source of
symmetry information in preference to the above space-group names.
They are only intended as comments.
;

loop_
_space_group_symop_operation_xyz
'x, y, z'
'-x, y+1/2, -z'

_cell_length_a                   16.137(5)
_cell_length_b                   7.605(3)
_cell_length_c                   16.140(5)
_cell_angle_alpha                90
_cell_angle_beta                 119.984(3)
_cell_angle_gamma                90
_cell_volume                     1715.6(10)
_cell_formula_units_Z            2
_cell_measurement_temperature    100(2)
_cell_measurement_reflns_used    9085
_cell_measurement_theta_min      2.9010
_cell_measurement_theta_max      29.3500

_exptl_crystal_description       block
_exptl_crystal_colour            colourless
_exptl_crystal_density_meas      ?
_exptl_crystal_density_method    ?
_exptl_crystal_density_diffrn    1.727
_exptl_crystal_F_000             904
_exptl_transmission_factor_min   ?
_exptl_transmission_factor_max   ?
_exptl_crystal_size_max          0.188
_exptl_crystal_size_mid          0.141
_exptl_crystal_size_min          0.135
_exptl_absorpt_coefficient_mu    1.536
_shelx_estimated_absorpt_T_min   ?
_shelx_estimated_absorpt_T_max   ?
_exptl_absorpt_correction_type   multi-scan
_exptl_absorpt_correction_T_min  0.87370
_exptl_absorpt_correction_T_max  1.00000
_exptl_absorpt_process_details   
;
Empirical absorption correction using spherical harmonics,
 implemented in SCALE3 ABSPACK scaling algorithm.
;
_exptl_absorpt_special_details   ?
_diffrn_ambient_temperature      100(2)
_diffrn_radiation_wavelength     0.71073
_diffrn_radiation_type           MoK\a
_diffrn_source                   'fine-focus sealed X-ray tube'
_diffrn_measurement_device_type  'Xcalibur, Atlas'
_diffrn_measurement_method       ?
_diffrn_detector_area_resol_mean 10.6249
_diffrn_reflns_number            24249
_diffrn_reflns_av_unetI/netI     0.0412
_diffrn_reflns_av_R_equivalents  0.0381
_diffrn_reflns_limit_h_min       -19
_diffrn_reflns_limit_h_max       19
_diffrn_reflns_limit_k_min       -9
_diffrn_reflns_limit_k_max       9
_diffrn_reflns_limit_l_min       -19
_diffrn_reflns_limit_l_max       19
_diffrn_reflns_theta_min         2.678
_diffrn_reflns_theta_max         25.996
_diffrn_reflns_theta_full        25.996
_diffrn_measured_fraction_theta_max 0.998
_diffrn_measured_fraction_theta_full 0.998
_diffrn_reflns_Laue_measured_fraction_max 0.998
_diffrn_reflns_Laue_measured_fraction_full 0.998
_diffrn_reflns_point_group_measured_fraction_max 0.999
_diffrn_reflns_point_group_measured_fraction_full 0.999
_reflns_number_total             6731
_reflns_number_gt                6380
_reflns_threshold_expression     'I > 2\s(I)'
_reflns_Friedel_coverage         0.855
_reflns_Friedel_fraction_max     1.000
_reflns_Friedel_fraction_full    1.000

_reflns_special_details          
;
 Reflections were merged by SHELXL according to the crystal
 class for the calculation of statistics and refinement.
 
 _reflns_Friedel_fraction is defined as the number of unique
 Friedel pairs measured divided by the number that would be
 possible theoretically, ignoring centric projections and
 systematic absences.
;

_computing_data_collection       ?
_computing_cell_refinement       ?
_computing_data_reduction        ?
_computing_structure_solution    ?
_computing_structure_refinement  'SHELXL-2014/7 (Sheldrick, 2014)'
_computing_molecular_graphics    ?
_computing_publication_material  ?
_refine_special_details          'Refined as a 2-component twin., Twin'
_refine_ls_structure_factor_coef Fsqd
_refine_ls_matrix_type           full
_refine_ls_weighting_scheme      calc
_refine_ls_weighting_details     
'w=1/[\s^2^(Fo^2^)+(0.0229P)^2^] where P=(Fo^2^+2Fc^2^)/3'
_atom_sites_solution_primary     ?
_atom_sites_solution_secondary   ?
_atom_sites_solution_hydrogens   mixed
_refine_ls_hydrogen_treatment    mixed
_refine_ls_extinction_method     none
_refine_ls_extinction_coef       .
_refine_ls_abs_structure_details 
;
 Flack x determined using 2714 quotients [(I+)-(I-)]/[(I+)+(I-)]
 (Parsons, Flack and Wagner, Acta Cryst. B69 (2013) 249-259).
;
_refine_ls_abs_structure_Flack   -0.017(8)
_chemical_absolute_configuration ?
_refine_ls_number_reflns         6731
_refine_ls_number_parameters     477
_refine_ls_number_restraints     40
_refine_ls_R_factor_all          0.0336
_refine_ls_R_factor_gt           0.0294
_refine_ls_wR_factor_ref         0.0580
_refine_ls_wR_factor_gt          0.0565
_refine_ls_goodness_of_fit_ref   1.043
_refine_ls_restrained_S_all      1.040
_refine_ls_shift/su_max          0.001
_refine_ls_shift/su_mean         0.000

loop_
_atom_site_label
_atom_site_type_symbol
_atom_site_fract_x
_atom_site_fract_y
_atom_site_fract_z
_atom_site_U_iso_or_equiv
_atom_site_adp_type
_atom_site_occupancy
_atom_site_site_symmetry_order
_atom_site_calc_flag
_atom_site_refinement_flags_posn
_atom_site_refinement_flags_adp
_atom_site_refinement_flags_occupancy
_atom_site_disorder_assembly
_atom_site_disorder_group
Mn1 Mn 1.18312(9) 0.3767(2) 0.33396(10) 0.0114(2) Uani 1 1 d . . . . .
Mn2 Mn 1.33400(10) 0.8766(2) 0.15101(9) 0.0117(2) Uani 1 1 d . . . . .
Mn3 Mn 0.84923(9) 0.87659(11) 0.18289(9) 0.0115(2) Uani 1 1 d . . . . .
Mn4 Mn 0.66678(10) 0.35722(10) 0.33332(10) 0.0118(2) Uani 1 1 d . . . . .
C1 C 1.0145(6) 0.6125(10) 0.2890(6) 0.0164(18) Uani 1 1 d . . . . .
H1 H 0.9967 0.5782 0.2256 0.020 Uiso 1 1 calc R U . . .
C2 C 1.2265(6) 0.6319(10) 0.2169(6) 0.0196(18) Uani 1 1 d . . . . .
H2 H 1.2883 0.6246 0.2721 0.024 Uiso 1 1 calc R U . . .
C3 C 0.7397(5) 0.6026(10) 0.2361(5) 0.0172(14) Uani 1 1 d . . . . .
H3 H 0.7968 0.5950 0.2963 0.021 Uiso 1 1 calc R U . . .
C4 C 1.3005(6) 0.6058(10) 0.5075(5) 0.0152(17) Uani 1 1 d . . . . .
H4 H 1.2423 0.5931 0.5083 0.018 Uiso 1 1 calc R U . . .
C5 C 1.2742(5) 0.6118(10) -0.0139(5) 0.0174(19) Uani 1 1 d . . . . .
H5 H 1.2291 0.5773 0.0043 0.021 Uiso 1 1 calc R U . . .
C6 C 0.4957(5) 0.6037(10) 0.2604(6) 0.0169(19) Uani 1 1 d . . . . .
H6 H 0.4976 0.5941 0.2026 0.020 Uiso 1 1 calc R U . . .
C7 C 1.0117(5) 0.1315(9) 0.2279(6) 0.0169(18) Uani 1 1 d . . . . .
H7 H 1.0200 0.1219 0.2903 0.020 Uiso 1 1 calc R U . . .
C8 C 0.7938(5) 1.1055(11) 0.2988(5) 0.0168(15) Uani 1 1 d . . . . .
H8 H 0.7357 1.0950 0.2397 0.020 Uiso 1 1 calc R U . . .
C9 C 0.7829(6) 0.6300(10) 0.0105(6) 0.0182(19) Uani 1 1 d . . . . .
H9 H 0.7288 0.6181 0.0187 0.022 Uiso 1 1 calc R U . . .
C10 C 0.5067(5) 0.1057(10) 0.2074(5) 0.0143(18) Uani 1 1 d . . . . .
H10 H 0.5069 0.0942 0.2661 0.017 Uiso 1 1 calc R U . . .
C11 C 0.7654(6) 0.6032(11) 0.5057(6) 0.021(2) Uani 1 1 d . . . . .
H11 H 0.7063 0.5925 0.5048 0.025 Uiso 1 1 calc R U . . .
C12 C 1.2888(5) 1.1127(9) 0.2740(5) 0.0154(17) Uani 1 1 d . . . . .
H12 H 1.2253 1.0795 0.2280 0.019 Uiso 1 1 calc R U . . .
O1 O 1.2185(4) 0.7240(8) 0.1482(4) 0.0161(12) Uani 1 1 d . . . . .
O2 O 1.0820(4) 0.5306(8) 0.3563(3) 0.0184(12) Uani 1 1 d . . . . .
O3 O 0.7398(3) 0.7057(7) 0.1752(3) 0.0181(12) Uani 1 1 d . . . . .
O4 O 0.9684(3) 0.7366(6) 0.2989(3) 0.0152(11) Uani 1 1 d . . . . .
O5 O 0.6718(3) 0.5103(8) 0.2243(3) 0.0178(13) Uani 1 1 d . . . . .
O6 O 1.1614(4) 0.5507(8) 0.2188(4) 0.0213(13) Uani 1 1 d . . . . .
O7 O 1.0704(4) 0.2238(8) 0.2184(4) 0.0165(13) Uani 1 1 d . . . . .
O8 O 0.7760(3) 0.5115(7) 0.4478(4) 0.0191(12) Uani 1 1 d . . . . .
O9 O 0.8645(4) 1.0218(8) 0.3073(3) 0.0175(12) Uani 1 1 d . . . . .
O10 O 0.5692(4) 0.2037(7) 0.2069(3) 0.0146(12) Uani 1 1 d . . . . .
O11 O 1.3562(4) 1.0308(8) 0.2746(4) 0.0190(12) Uani 1 1 d . . . . .
O12 O 1.3072(4) 0.5224(8) 0.4432(4) 0.0184(13) Uani 1 1 d . . . . .
O13 O 0.8520(4) 0.7240(7) 0.0702(4) 0.0164(12) Uani 1 1 d . . . . .
O14 O 1.3307(4) 0.7368(7) 0.0312(3) 0.0186(12) Uani 1 1 d . . . . .
O15 O 1.2746(4) 0.5309(7) -0.0815(4) 0.0173(13) Uani 1 1 d . . . . .
O16 O 0.7928(3) 0.2029(7) 0.3619(3) 0.0153(12) Uani 1 1 d . . . . .
O17 O 0.4434(3) 0.0211(7) 0.1362(3) 0.0174(12) Uani 1 1 d . . . . .
O18 O 0.5527(4) 0.5121(7) 0.3281(3) 0.0171(13) Uani 1 1 d . . . . .
O19 O 0.9426(4) 0.0502(8) 0.1616(4) 0.0223(13) Uani 1 1 d . . . . .
O20 O 0.7813(3) 0.5531(8) -0.0577(4) 0.0199(13) Uani 1 1 d . . . . .
O21 O 1.3620(3) 0.7021(7) 0.5692(4) 0.0147(11) Uani 1 1 d . . . . .
O22 O 0.8245(3) 0.7065(7) 0.5642(3) 0.0174(12) Uani 1 1 d . . . . .
O23 O 0.4360(4) 0.7075(8) 0.2603(4) 0.0178(12) Uani 1 1 d . . . . .
O24 O 1.2994(3) 1.2367(7) 0.3305(4) 0.0174(12) Uani 1 1 d . . . . .
N1 N 1.0361(3) 0.8564(9) 0.4868(3) 0.0176(12) Uani 1 1 d D . . . .
H1A H 1.0925 0.8271 0.5331 0.021 Uiso 1 1 d R U . . .
H1B H 1.0330 0.8310 0.4326 0.021 Uiso 1 1 d R U . . .
N2 N 0.9602(3) 0.7664(7) 0.4934(3) 0.0199(12) Uani 1 1 d D . . . .
H2A H 0.9566 0.8094 0.5441 0.024 Uiso 1 1 calc R U . . .
H2B H 0.9731 0.6492 0.5017 0.024 Uiso 1 1 calc R U . . .
H2C H 0.9036 0.7843 0.4387 0.024 Uiso 1 1 calc R U . . .
N3 N 0.4863(3) 0.3561(7) 0.4502(3) 0.0164(12) Uani 1 1 d D . . . .
H3A H 0.4273 0.3372 0.3986 0.020 Uiso 1 1 calc R U . . .
H3B H 0.5319 0.3153 0.4377 0.020 Uiso 1 1 calc R U . . .
H3C H 0.4949 0.4734 0.4628 0.020 Uiso 1 1 calc R U . . .
N4 N 0.4937(4) 0.2642(6) 0.5327(3) 0.0179(11) Uani 1 1 d D . . . .
H4A H 0.5466 0.2965 0.5838 0.021 Uiso 1 1 d R U . . .
H4B H 0.4458 0.2841 0.5430 0.021 Uiso 1 1 d R U . . .
N5 N 0.5486(3) 0.3563(7) 0.0349(3) 0.0173(12) Uani 1 1 d D . . . .
H5A H 0.6004 0.3358 0.0280 0.021 Uiso 1 1 calc R U . . .
H5B H 0.5609 0.3175 0.0933 0.021 Uiso 1 1 calc R U . . .
H5C H 0.5361 0.4737 0.0299 0.021 Uiso 1 1 calc R U . . .
N6 N 0.4664(4) 0.2634(7) -0.0393(3) 0.0201(12) Uani 1 1 d D . . . .
H6A H 0.465(4) 0.313(8) -0.084(4) 0.024 Uiso 1 1 d . U . . .
H6B H 0.416(4) 0.324(8) -0.036(4) 0.024 Uiso 1 1 d . U . . .
N7 N 1.0365(12) 0.175(2) 0.0316(11) 0.018(3) Uiso 0.3333 1 d D U P A 1
H7A H 1.0312 0.0756 -0.0024 0.022 Uiso 0.3333 1 calc R U P A 1
H7B H 1.0078 0.1568 0.0672 0.022 Uiso 0.3333 1 calc R U P A 1
H7C H 1.0994 0.2001 0.0710 0.022 Uiso 0.3333 1 calc R U P A 1
N8 N 0.9904(16) 0.320(2) -0.0336(15) 0.022(4) Uani 0.3333 1 d D U P A 1
H8A H 0.9309 0.2948 -0.0757 0.027 Uiso 0.3333 1 d R U P A 1
H8B H 0.9898 0.4112 -0.0010 0.027 Uiso 0.3333 1 d R U P A 1
N9 N 0.9686(11) 0.175(2) 0.0045(13) 0.026(4) Uani 0.3333 1 d D U P B 2
H9A H 0.9318 0.1627 -0.0600 0.032 Uiso 0.3333 1 calc R U P B 2
H9B H 0.9305 0.1987 0.0298 0.032 Uiso 0.3333 1 calc R U P B 2
H9C H 1.0013 0.0733 0.0302 0.032 Uiso 0.3333 1 calc R U P B 2
N10 N 1.0356(14) 0.318(2) 0.0261(14) 0.019(4) Uani 0.3333 1 d D U P B 2
H10A H 1.0726 0.2947 0.0024 0.023 Uiso 0.3333 1 d R U P B 2
H10B H 1.0048 0.4153 0.0000 0.023 Uiso 0.3333 1 d R U P B 2
N11 N 0.9734(16) 0.317(2) 0.0103(15) 0.021(4) Uani 0.3333 1 d D U P C 3
H11A H 0.9126 0.3212 -0.0110 0.025 Uiso 0.3333 1 d R U P C 3
H11B H 1.0029 0.3000 0.0712 0.025 Uiso 0.3333 1 d R U P C 3
N12 N 0.9951(11) 0.177(2) -0.0366(11) 0.016(4) Uani 0.3333 1 d D U P C 3
H12A H 0.9587 0.1895 -0.1012 0.019 Uiso 0.3333 1 calc R U P C 3
H12B H 0.9821 0.0712 -0.0191 0.019 Uiso 0.3333 1 calc R U P C 3
H12C H 1.0581 0.1815 -0.0191 0.019 Uiso 0.3333 1 calc R U P C 3

loop_
_atom_site_aniso_label
_atom_site_aniso_U_11
_atom_site_aniso_U_22
_atom_site_aniso_U_33
_atom_site_aniso_U_23
_atom_site_aniso_U_13
_atom_site_aniso_U_12
Mn1 0.0129(6) 0.0090(5) 0.0114(5) -0.0006(6) 0.0054(3) -0.0001(6)
Mn2 0.0127(5) 0.0090(5) 0.0126(5) 0.0013(6) 0.0057(4) 0.0005(6)
Mn3 0.0129(5) 0.0083(5) 0.0130(5) 0.0000(6) 0.0063(4) -0.0008(6)
Mn4 0.0133(6) 0.0090(6) 0.0128(6) -0.0002(5) 0.0063(4) 0.0004(5)
C1 0.019(4) 0.018(5) 0.015(4) 0.002(3) 0.012(3) 0.006(3)
C2 0.021(4) 0.015(4) 0.017(4) 0.003(3) 0.006(3) 0.002(3)
C3 0.025(4) 0.014(4) 0.009(3) 0.003(3) 0.005(3) 0.001(3)
C4 0.015(4) 0.016(4) 0.014(4) 0.002(3) 0.007(3) 0.003(3)
C5 0.015(4) 0.017(5) 0.018(4) -0.001(3) 0.006(3) -0.003(3)
C6 0.010(4) 0.021(4) 0.019(4) 0.003(3) 0.007(3) 0.003(3)
C7 0.019(4) 0.009(4) 0.021(4) -0.004(3) 0.009(3) -0.008(3)
C8 0.016(4) 0.019(4) 0.010(3) -0.001(3) 0.002(3) 0.000(3)
C9 0.020(4) 0.011(4) 0.018(4) -0.002(3) 0.005(3) -0.004(3)
C10 0.014(3) 0.019(4) 0.012(3) -0.001(3) 0.008(3) 0.000(3)
C11 0.021(4) 0.017(4) 0.025(4) -0.001(3) 0.011(3) 0.001(3)
C12 0.013(4) 0.018(4) 0.017(4) 0.001(3) 0.010(3) 0.005(3)
O1 0.018(3) 0.016(3) 0.012(2) 0.005(2) 0.006(2) -0.003(2)
O2 0.017(3) 0.022(3) 0.012(2) -0.001(2) 0.004(2) 0.006(2)
O3 0.019(3) 0.018(3) 0.018(3) 0.007(2) 0.010(2) -0.002(2)
O4 0.014(2) 0.014(2) 0.014(2) -0.002(2) 0.0046(19) 0.006(2)
O5 0.017(3) 0.019(3) 0.016(3) 0.001(2) 0.007(2) -0.009(2)
O6 0.019(3) 0.023(3) 0.022(3) 0.009(2) 0.010(2) -0.005(2)
O7 0.017(3) 0.016(3) 0.019(3) 0.000(2) 0.010(2) -0.008(2)
O8 0.014(3) 0.020(3) 0.020(3) -0.009(2) 0.006(2) -0.003(2)
O9 0.020(3) 0.017(3) 0.018(2) -0.002(2) 0.011(2) 0.006(2)
O10 0.018(3) 0.013(3) 0.014(2) -0.002(2) 0.008(2) -0.007(2)
O11 0.017(3) 0.020(3) 0.021(2) -0.005(2) 0.010(2) 0.004(2)
O12 0.019(3) 0.019(3) 0.016(3) -0.007(2) 0.008(2) -0.004(2)
O13 0.017(2) 0.011(3) 0.019(3) -0.009(2) 0.007(2) -0.009(2)
O14 0.021(3) 0.021(3) 0.016(2) -0.006(2) 0.011(2) -0.011(2)
O15 0.020(2) 0.018(3) 0.016(3) -0.004(2) 0.010(2) -0.007(2)
O16 0.015(2) 0.013(3) 0.016(3) -0.003(2) 0.007(2) 0.001(2)
O17 0.016(2) 0.017(3) 0.019(2) -0.003(2) 0.008(2) -0.007(2)
O18 0.021(3) 0.018(3) 0.017(3) 0.008(2) 0.013(2) 0.009(2)
O19 0.023(3) 0.025(3) 0.021(3) -0.005(2) 0.012(2) -0.013(3)
O20 0.018(2) 0.020(3) 0.022(3) -0.012(3) 0.010(2) -0.004(2)
O21 0.016(3) 0.011(3) 0.017(2) -0.004(2) 0.008(2) -0.003(2)
O22 0.019(3) 0.015(3) 0.015(3) -0.010(2) 0.007(2) -0.007(2)
O23 0.016(3) 0.016(3) 0.020(3) 0.006(2) 0.008(2) 0.009(2)
O24 0.014(2) 0.017(3) 0.020(3) -0.008(2) 0.008(2) 0.001(2)
N1 0.010(3) 0.031(4) 0.009(2) -0.005(3) 0.0024(17) -0.008(3)
N2 0.018(3) 0.017(3) 0.024(3) 0.000(2) 0.009(2) -0.001(2)
N3 0.015(2) 0.017(3) 0.018(3) 0.000(3) 0.008(2) -0.002(3)
N4 0.022(3) 0.020(3) 0.016(3) 0.006(2) 0.012(2) 0.002(2)
N5 0.016(3) 0.015(3) 0.021(3) -0.003(3) 0.009(2) -0.006(3)
N6 0.019(3) 0.025(3) 0.011(3) 0.000(2) 0.003(2) -0.003(2)
N8 0.025(11) 0.008(11) 0.031(11) 0.001(8) 0.013(10) 0.007(8)
N9 0.021(10) 0.033(13) 0.018(9) 0.009(8) 0.005(8) 0.003(8)
N10 0.021(11) 0.019(12) 0.026(11) 0.006(8) 0.018(8) -0.003(8)
N11 0.023(12) 0.020(14) 0.014(10) -0.005(8) 0.006(9) -0.010(8)
N12 0.013(8) 0.022(11) 0.022(9) 0.013(7) 0.015(8) 0.004(7)

_geom_special_details            
;
 All esds (except the esd in the dihedral angle between two l.s. planes)
 are estimated using the full covariance matrix.  The cell esds are taken
 into account individually in the estimation of esds in distances, angles
 and torsion angles; correlations between esds in cell parameters are only
 used when they are defined by crystal symmetry.  An approximate (isotropic)
 treatment of cell esds is used for estimating esds involving l.s. planes.
;

loop_
_geom_bond_atom_site_label_1
_geom_bond_atom_site_label_2
_geom_bond_distance
_geom_bond_site_symmetry_2
_geom_bond_publ_flag
Mn1 O22 2.144(5) 2_746 ?
Mn1 O6 2.163(6) . ?
Mn1 O7 2.179(5) . ?
Mn1 O2 2.180(5) . ?
Mn1 O24 2.183(5) 1_545 ?
Mn1 O12 2.195(5) . ?
Mn2 O23 2.139(5) 1_655 ?
Mn2 O20 2.175(5) 2_755 ?
Mn2 O1 2.177(5) . ?
Mn2 O11 2.184(5) . ?
Mn2 O14 2.185(5) . ?
Mn2 O17 2.191(5) 1_665 ?
Mn3 O3 2.145(5) . ?
Mn3 O19 2.157(5) 1_565 ?
Mn3 O4 2.177(4) . ?
Mn3 O13 2.177(5) . ?
Mn3 O15 2.187(5) 2_755 ?
Mn3 O9 2.195(5) . ?
Mn4 O5 2.145(5) . ?
Mn4 O18 2.151(5) . ?
Mn4 O8 2.155(5) . ?
Mn4 O16 2.189(5) . ?
Mn4 O10 2.190(5) . ?
Mn4 O21 2.193(5) 2_746 ?
C1 O2 1.254(9) . ?
C1 O4 1.260(9) . ?
C1 H1 0.9500 . ?
C2 O6 1.232(10) . ?
C2 O1 1.263(9) . ?
C2 H2 0.9500 . ?
C3 O5 1.233(9) . ?
C3 O3 1.258(9) . ?
C3 H3 0.9500 . ?
C4 O21 1.235(9) . ?
C4 O12 1.265(9) . ?
C4 H4 0.9500 . ?
C5 O15 1.255(9) . ?
C5 O14 1.266(9) . ?
C5 H5 0.9500 . ?
C6 O18 1.233(9) . ?
C6 O23 1.245(9) . ?
C6 H6 0.9500 . ?
C7 O7 1.248(9) . ?
C7 O19 1.256(9) . ?
C7 H7 0.9500 . ?
C8 O9 1.251(10) . ?
C8 O16 1.265(10) 1_565 ?
C8 H8 0.9500 . ?
C9 O20 1.236(10) . ?
C9 O13 1.269(9) . ?
C9 H9 0.9500 . ?
C10 O10 1.257(8) . ?
C10 O17 1.266(9) . ?
C10 H10 0.9500 . ?
C11 O22 1.232(9) . ?
C11 O8 1.244(10) . ?
C11 H11 0.9500 . ?
C12 O11 1.250(9) . ?
C12 O24 1.262(9) . ?
C12 H12 0.9500 . ?
O15 Mn3 2.187(5) 2_745 ?
O16 C8 1.265(10) 1_545 ?
O17 Mn2 2.191(5) 1_445 ?
O19 Mn3 2.157(5) 1_545 ?
O20 Mn2 2.175(5) 2_745 ?
O21 Mn4 2.193(5) 2_756 ?
O22 Mn1 2.144(5) 2_756 ?
O23 Mn2 2.139(5) 1_455 ?
O24 Mn1 2.183(5) 1_565 ?
N1 N2 1.452(4) . ?
N1 H1A 0.8698 . ?
N1 H1B 0.8716 . ?
N2 H2A 0.9100 . ?
N2 H2B 0.9100 . ?
N2 H2C 0.9100 . ?
N3 N4 1.454(4) . ?
N3 H3A 0.9100 . ?
N3 H3B 0.9100 . ?
N3 H3C 0.9100 . ?
N4 H4A 0.8751 . ?
N4 H4B 0.8819 . ?
N5 N6 1.451(5) . ?
N5 H5A 0.9100 . ?
N5 H5B 0.9100 . ?
N5 H5C 0.9100 . ?
N6 H6A 0.81(6) . ?
N6 H6B 0.96(6) . ?
N7 N8 1.449(6) . ?
N7 H7A 0.9100 . ?
N7 H7B 0.9100 . ?
N7 H7C 0.9100 . ?
N8 H8A 0.8757 . ?
N8 H8B 0.8730 . ?
N9 N10 1.447(6) . ?
N9 H9A 0.9100 . ?
N9 H9B 0.9100 . ?
N9 H9C 0.9100 . ?
N10 H10A 0.8726 . ?
N10 H10B 0.8755 . ?
N11 N12 1.449(6) . ?
N11 H11A 0.8627 . ?
N11 H11B 0.8620 . ?
N12 H12A 0.9100 . ?
N12 H12B 0.9100 . ?
N12 H12C 0.9100 . ?

loop_
_geom_angle_atom_site_label_1
_geom_angle_atom_site_label_2
_geom_angle_atom_site_label_3
_geom_angle
_geom_angle_site_symmetry_1
_geom_angle_site_symmetry_3
_geom_angle_publ_flag
O22 Mn1 O6 169.04(19) 2_746 . ?
O22 Mn1 O7 89.5(2) 2_746 . ?
O6 Mn1 O7 83.3(2) . . ?
O22 Mn1 O2 82.10(17) 2_746 . ?
O6 Mn1 O2 90.0(2) . . ?
O7 Mn1 O2 93.1(2) . . ?
O22 Mn1 O24 96.03(19) 2_746 1_545 ?
O6 Mn1 O24 92.76(18) . 1_545 ?
O7 Mn1 O24 94.5(2) . 1_545 ?
O2 Mn1 O24 172.2(2) . 1_545 ?
O22 Mn1 O12 93.9(2) 2_746 . ?
O6 Mn1 O12 94.2(2) . . ?
O7 Mn1 O12 173.30(16) . . ?
O2 Mn1 O12 93.1(2) . . ?
O24 Mn1 O12 79.4(2) 1_545 . ?
O23 Mn2 O20 169.06(15) 1_655 2_755 ?
O23 Mn2 O1 89.7(2) 1_655 . ?
O20 Mn2 O1 83.5(2) 2_755 . ?
O23 Mn2 O11 82.1(2) 1_655 . ?
O20 Mn2 O11 89.7(2) 2_755 . ?
O1 Mn2 O11 93.07(15) . . ?
O23 Mn2 O14 96.0(2) 1_655 . ?
O20 Mn2 O14 93.1(2) 2_755 . ?
O1 Mn2 O14 94.6(2) . . ?
O11 Mn2 O14 172.1(2) . . ?
O23 Mn2 O17 93.5(2) 1_655 1_665 ?
O20 Mn2 O17 94.2(2) 2_755 1_665 ?
O1 Mn2 O17 173.25(19) . 1_665 ?
O11 Mn2 O17 93.3(2) . 1_665 ?
O14 Mn2 O17 79.17(16) . 1_665 ?
O3 Mn3 O19 169.16(19) . 1_565 ?
O3 Mn3 O4 95.85(19) . . ?
O19 Mn3 O4 92.8(2) 1_565 . ?
O3 Mn3 O13 89.36(19) . . ?
O19 Mn3 O13 83.4(2) 1_565 . ?
O4 Mn3 O13 94.5(2) . . ?
O3 Mn3 O15 82.2(2) . 2_755 ?
O19 Mn3 O15 90.1(2) 1_565 2_755 ?
O4 Mn3 O15 172.1(2) . 2_755 ?
O13 Mn3 O15 93.08(19) . 2_755 ?
O3 Mn3 O9 94.0(2) . . ?
O19 Mn3 O9 94.0(2) 1_565 . ?
O4 Mn3 O9 79.21(19) . . ?
O13 Mn3 O9 173.15(19) . . ?
O15 Mn3 O9 93.27(19) 2_755 . ?
O5 Mn4 O18 93.01(19) . . ?
O5 Mn4 O8 93.3(2) . . ?
O18 Mn4 O8 93.0(2) . . ?
O5 Mn4 O16 93.0(2) . . ?
O18 Mn4 O16 171.46(19) . . ?
O8 Mn4 O16 80.5(2) . . ?
O5 Mn4 O10 80.2(2) . . ?
O18 Mn4 O10 93.0(2) . . ?
O8 Mn4 O10 171.4(2) . . ?
O16 Mn4 O10 94.0(2) . . ?
O5 Mn4 O21 171.3(2) . 2_746 ?
O18 Mn4 O21 80.75(19) . 2_746 ?
O8 Mn4 O21 93.1(2) . 2_746 ?
O16 Mn4 O21 93.9(2) . 2_746 ?
O10 Mn4 O21 94.0(2) . 2_746 ?
O2 C1 O4 125.0(7) . . ?
O2 C1 H1 117.5 . . ?
O4 C1 H1 117.5 . . ?
O6 C2 O1 125.8(7) . . ?
O6 C2 H2 117.1 . . ?
O1 C2 H2 117.1 . . ?
O5 C3 O3 125.7(5) . . ?
O5 C3 H3 117.2 . . ?
O3 C3 H3 117.2 . . ?
O21 C4 O12 126.5(7) . . ?
O21 C4 H4 116.7 . . ?
O12 C4 H4 116.7 . . ?
O15 C5 O14 123.6(7) . . ?
O15 C5 H5 118.2 . . ?
O14 C5 H5 118.2 . . ?
O18 C6 O23 126.4(8) . . ?
O18 C6 H6 116.8 . . ?
O23 C6 H6 116.8 . . ?
O7 C7 O19 125.3(7) . . ?
O7 C7 H7 117.4 . . ?
O19 C7 H7 117.4 . . ?
O9 C8 O16 125.9(6) . 1_565 ?
O9 C8 H8 117.0 . . ?
O16 C8 H8 117.0 1_565 . ?
O20 C9 O13 124.2(8) . . ?
O20 C9 H9 117.9 . . ?
O13 C9 H9 117.9 . . ?
O10 C10 O17 125.6(7) . . ?
O10 C10 H10 117.2 . . ?
O17 C10 H10 117.2 . . ?
O22 C11 O8 126.0(8) . . ?
O22 C11 H11 117.0 . . ?
O8 C11 H11 117.0 . . ?
O11 C12 O24 124.2(6) . . ?
O11 C12 H12 117.9 . . ?
O24 C12 H12 117.9 . . ?
C2 O1 Mn2 124.5(5) . . ?
C1 O2 Mn1 121.4(5) . . ?
C3 O3 Mn3 130.9(5) . . ?
C1 O4 Mn3 125.5(5) . . ?
C3 O5 Mn4 125.3(4) . . ?
C2 O6 Mn1 123.7(5) . . ?
C7 O7 Mn1 123.7(5) . . ?
C11 O8 Mn4 126.1(5) . . ?
C8 O9 Mn3 118.4(5) . . ?
C10 O10 Mn4 121.1(5) . . ?
C12 O11 Mn2 121.0(5) . . ?
C4 O12 Mn1 119.6(5) . . ?
C9 O13 Mn3 123.9(5) . . ?
C5 O14 Mn2 124.5(5) . . ?
C5 O15 Mn3 120.9(4) . 2_745 ?
C8 O16 Mn4 121.9(4) 1_545 . ?
C10 O17 Mn2 119.0(4) . 1_445 ?
C6 O18 Mn4 126.1(5) . . ?
C7 O19 Mn3 124.0(5) . 1_545 ?
C9 O20 Mn2 122.6(5) . 2_745 ?
C4 O21 Mn4 121.7(5) . 2_756 ?
C11 O22 Mn1 130.8(5) . 2_756 ?
C6 O23 Mn2 131.2(5) . 1_455 ?
C12 O24 Mn1 125.1(4) . 1_565 ?
N2 N1 H1A 111.9 . . ?
N2 N1 H1B 109.9 . . ?
H1A N1 H1B 108.5 . . ?
N1 N2 H2A 109.5 . . ?
N1 N2 H2B 109.5 . . ?
H2A N2 H2B 109.5 . . ?
N1 N2 H2C 109.5 . . ?
H2A N2 H2C 109.5 . . ?
H2B N2 H2C 109.5 . . ?
N4 N3 H3A 109.5 . . ?
N4 N3 H3B 109.5 . . ?
H3A N3 H3B 109.5 . . ?
N4 N3 H3C 109.5 . . ?
H3A N3 H3C 109.5 . . ?
H3B N3 H3C 109.5 . . ?
N3 N4 H4A 108.9 . . ?
N3 N4 H4B 114.3 . . ?
H4A N4 H4B 107.8 . . ?
N6 N5 H5A 109.5 . . ?
N6 N5 H5B 109.5 . . ?
H5A N5 H5B 109.5 . . ?
N6 N5 H5C 109.5 . . ?
H5A N5 H5C 109.5 . . ?
H5B N5 H5C 109.5 . . ?
N5 N6 H6A 97(4) . . ?
N5 N6 H6B 100(3) . . ?
H6A N6 H6B 100(5) . . ?
N8 N7 H7A 109.5 . . ?
N8 N7 H7B 109.5 . . ?
H7A N7 H7B 109.5 . . ?
N8 N7 H7C 109.5 . . ?
H7A N7 H7C 109.5 . . ?
H7B N7 H7C 109.5 . . ?
N7 N8 H8A 111.3 . . ?
N7 N8 H8B 109.0 . . ?
H8A N8 H8B 107.7 . . ?
N10 N9 H9A 109.5 . . ?
N10 N9 H9B 109.5 . . ?
H9A N9 H9B 109.5 . . ?
N10 N9 H9C 109.5 . . ?
H9A N9 H9C 109.5 . . ?
H9B N9 H9C 109.5 . . ?
N9 N10 H10A 109.7 . . ?
N9 N10 H10B 110.1 . . ?
H10A N10 H10B 107.9 . . ?
N12 N11 H11A 110.0 . . ?
N12 N11 H11B 110.2 . . ?
H11A N11 H11B 109.3 . . ?
N11 N12 H12A 109.5 . . ?
N11 N12 H12B 109.5 . . ?
H12A N12 H12B 109.5 . . ?
N11 N12 H12C 109.5 . . ?
H12A N12 H12C 109.5 . . ?
H12B N12 H12C 109.5 . . ?

loop_
_geom_torsion_atom_site_label_1
_geom_torsion_atom_site_label_2
_geom_torsion_atom_site_label_3
_geom_torsion_atom_site_label_4
_geom_torsion
_geom_torsion_site_symmetry_1
_geom_torsion_site_symmetry_2
_geom_torsion_site_symmetry_3
_geom_torsion_site_symmetry_4
_geom_torsion_publ_flag
O6 C2 O1 Mn2 176.6(6) . . . . ?
O4 C1 O2 Mn1 -161.2(6) . . . . ?
O5 C3 O3 Mn3 179.3(5) . . . . ?
O2 C1 O4 Mn3 -178.6(6) . . . . ?
O3 C3 O5 Mn4 -172.7(6) . . . . ?
O1 C2 O6 Mn1 174.2(6) . . . . ?
O19 C7 O7 Mn1 175.6(6) . . . . ?
O22 C11 O8 Mn4 -171.3(6) . . . . ?
O16 C8 O9 Mn3 -175.9(6) 1_565 . . . ?
O17 C10 O10 Mn4 175.2(6) . . . . ?
O24 C12 O11 Mn2 -161.5(5) . . . . ?
O21 C4 O12 Mn1 -174.9(6) . . . . ?
O20 C9 O13 Mn3 174.7(6) . . . . ?
O15 C5 O14 Mn2 -178.6(5) . . . . ?
O14 C5 O15 Mn3 -161.0(5) . . . 2_745 ?
O10 C10 O17 Mn2 -174.7(6) . . . 1_445 ?
O23 C6 O18 Mn4 -172.1(6) . . . . ?
O7 C7 O19 Mn3 175.2(6) . . . 1_545 ?
O13 C9 O20 Mn2 174.9(5) . . . 2_745 ?
O12 C4 O21 Mn4 173.9(6) . . . 2_756 ?
O8 C11 O22 Mn1 178.5(6) . . . 2_756 ?
O18 C6 O23 Mn2 179.2(6) . . . 1_455 ?
O11 C12 O24 Mn1 -178.0(5) . . . 1_565 ?

loop_
_geom_hbond_atom_site_label_D
_geom_hbond_atom_site_label_H
_geom_hbond_atom_site_label_A
_geom_hbond_distance_DH
_geom_hbond_distance_HA
_geom_hbond_distance_DA
_geom_hbond_angle_DHA
_geom_hbond_site_symmetry_A
C4 H4 O2 0.95 2.57 3.181(9) 122.4 .
C7 H7 O22 0.95 2.52 3.115(9) 121.1 2_746
C8 H8 O15 0.95 2.52 3.158(9) 124.5 2_755
C9 H9 O3 0.95 2.53 3.119(10) 120.2 .
C10 H10 O11 0.95 2.55 3.167(9) 122.9 1_445
N1 H1B O4 0.87 2.00 2.813(7) 154.0 .
N1 H1A O16 0.87 2.01 2.865(7) 166.0 2_756
N2 H2B N1 0.91 2.25 3.132(8) 164.6 2_746
N3 H3B O21 0.91 1.97 2.870(7) 170.0 2_746
N3 H3A O24 0.91 1.95 2.798(7) 155.2 1_445
N3 H3C N4 0.91 2.22 3.118(7) 170.4 2_656
N5 H5B O10 0.91 1.97 2.871(7) 169.9 .
N5 H5A O14 0.91 1.94 2.798(7) 155.8 2_745
N5 H5C N6 0.91 2.21 3.110(7) 169.3 2_655
N7 H7B O7 0.91 2.18 2.807(16) 125.0 .
N7 H7C O20 0.91 2.33 2.905(16) 121.3 2_745
N7 H7A N8 0.91 2.11 2.73(2) 125.1 2_745
N8 H8A O1 0.88 2.16 3.01(2) 165.7 2_745
N8 H8B N7 0.87 2.06 2.73(2) 133.9 2_755
N9 H9A O1 0.91 2.16 2.809(17) 127.4 2_745
N9 H9B O19 0.91 2.33 2.927(18) 123.1 .
N9 H9C N10 0.91 2.10 2.76(2) 127.8 2_745
N10 H10A O13 0.87 2.14 3.00(2) 172.9 2_745
N10 H10B N9 0.88 2.03 2.76(2) 139.7 2_755
N11 H11A O1 0.86 2.29 2.95(2) 133.7 2_745
N11 H11B O7 0.86 2.14 3.00(2) 172.7 .
N12 H12A O6 0.91 2.19 2.919(16) 136.6 2_745
N12 H12C O13 0.91 2.02 2.801(16) 142.9 2_745
N12 H12B N11 0.91 2.04 2.78(2) 136.8 2_745

_refine_diff_density_max         0.304
_refine_diff_density_min         -0.383
_refine_diff_density_rms         0.062

_shelx_res_file                  
;

    hydrmn_p21_100k.res created by SHELXL-2014/7

TITL mP in P21 #4
REM reset to P21 #4
CELL 0.71073 16.137 7.605 16.14 90 119.9842 90
ZERR 2 0.005 0.003 0.005 0 0.003 0
LATT -1
SYMM -X,0.5+Y,-Z
SFAC C H Mn N O
UNIT 24 64 8 16 48
EQIV $1 2-X,-0.5+Y,1-Z
EQIV $2 2-X,0.5+Y,-Z
EQIV $3 -1+X,-1+Y,+Z
EQIV $4 2-X,0.5+Y,1-Z
EQIV $5 1-X,0.5+Y,1-Z
EQIV $6 2-X,-0.5+Y,-Z
EQIV $7 1-X,0.5+Y,-Z
SADI 0.005 N1 N2 N3 N4 N5 N6 N7 N8 N9 N10 N11 N12
SIMU 0.02 0.08 1.6 N7 N8
SIMU 0.02 0.08 1.6 N9 N10
SIMU 0.02 0.08 1.6 N11 N12
ISOR 0.001 0.02 N7 N8
SUMP 1 0.0001 2 1 3 1 4 1

L.S. 10
PLAN  20
TEMP -173.1(2)
HTAB C4 O2
HTAB C7 O22_$1
HTAB C8 O15_$2
HTAB C9 O3
HTAB C10 O11_$3
HTAB N1 O4
HTAB N1 O16_$4
HTAB N2 N1_$1
HTAB N3 O21_$1
HTAB N3 O24_$3
HTAB N3 N4_$5
HTAB N5 O10
HTAB N5 O14_$6
HTAB N5 N6_$7
HTAB N7 O7
HTAB N7 O20_$6
HTAB N7 N8_$6
HTAB N7 N10_$6
HTAB N7 N11_$6
HTAB N8 O1_$6
HTAB N8 N7_$2
HTAB N8 N9_$2
HTAB N8 N12_$2
HTAB N9 O1_$6
HTAB N9 O19
HTAB N9 N8_$6
HTAB N9 N10_$6
HTAB N9 N11_$6
HTAB N10 O13_$6
HTAB N10 N7_$2
HTAB N10 N9_$2
HTAB N10 N12_$2
HTAB N11 O1_$6
HTAB N11 O7
HTAB N12 O6_$6
HTAB N12 O13_$6
HTAB N12 N8_$6
HTAB N12 N10_$6
HTAB N12 N11_$6
FREE N7 N10
FREE N7 N12
FREE N7 N9
FREE N8 H9a
FREE N8 H12a
FREE N8 H12c
FREE N8 N9
FREE N8 N10
FREE N8 N11
FREE N8 N12
FREE N9 N12
FREE N10 H7c
FREE N10 H9a
FREE N10 H7
FREE N10 H12c
FREE N10 N11
FREE N10 N12
FREE N11 H9b
FREE N11 H7b
FREE N11 N9
FREE N11 N7
BOND
MORE -1
BOND $H
CONF
fmap 2
acta 52
TWIN 0 0 1 0 -1 0 1 0 0 2
OMIT 0 52
OMIT -1 0 2
OMIT -2 0 1
OMIT 1 0 1
REM <olex2.extras>
REM <HklSrc "%.\\hydrMn_P21_100K.hkl">
REM </olex2.extras>

WGHT    0.022900
BASF   0.48373
FVAR       1.38078
MN1   3    1.183116    0.376702    0.333965    11.00000    0.01286    0.00896 =
         0.01135   -0.00058    0.00537   -0.00005
MN2   3    1.333998    0.876646    0.151005    11.00000    0.01271    0.00902 =
         0.01260    0.00131    0.00567    0.00047
MN3   3    0.849228    0.876585    0.182891    11.00000    0.01289    0.00832 =
         0.01305   -0.00003    0.00634   -0.00082
MN4   3    0.666779    0.357217    0.333321    11.00000    0.01329    0.00897 =
         0.01280   -0.00022    0.00626    0.00036
C1    1    1.014484    0.612453    0.288958    11.00000    0.01934    0.01850 =
         0.01545    0.00205    0.01177    0.00599
AFIX  43
H1    2    0.996689    0.578248    0.225594    11.00000   -1.20000
AFIX   0
C2    1    1.226514    0.631910    0.216920    11.00000    0.02145    0.01502 =
         0.01732    0.00283    0.00585    0.00203
AFIX  43
H2    2    1.288271    0.624629    0.272119    11.00000   -1.20000
AFIX   0
C3    1    0.739675    0.602567    0.236056    11.00000    0.02480    0.01427 =
         0.00850    0.00327    0.00540    0.00054
AFIX  43
H3    2    0.796831    0.595039    0.296269    11.00000   -1.20000
AFIX   0
C4    1    1.300500    0.605817    0.507475    11.00000    0.01488    0.01610 =
         0.01436    0.00219    0.00706    0.00313
AFIX  43
H4    2    1.242350    0.593111    0.508299    11.00000   -1.20000
AFIX   0
C5    1    1.274244    0.611779   -0.013950    11.00000    0.01502    0.01718 =
         0.01751   -0.00070    0.00625   -0.00277
AFIX  43
H5    2    1.229057    0.577302    0.004329    11.00000   -1.20000
AFIX   0
C6    1    0.495735    0.603662    0.260367    11.00000    0.01014    0.02112 =
         0.01930    0.00345    0.00733    0.00284
AFIX  43
H6    2    0.497570    0.594058    0.202619    11.00000   -1.20000
AFIX   0
C7    1    1.011729    0.131478    0.227895    11.00000    0.01915    0.00933 =
         0.02053   -0.00351    0.00859   -0.00771
AFIX  43
H7    2    1.019986    0.121934    0.290271    11.00000   -1.20000
AFIX   0
C8    1    0.793845    1.105518    0.298801    11.00000    0.01580    0.01863 =
         0.00983   -0.00110    0.00179   -0.00010
AFIX  43
H8    2    0.735723    1.094968    0.239654    11.00000   -1.20000
AFIX   0
C9    1    0.782855    0.630048    0.010482    11.00000    0.01971    0.01123 =
         0.01802   -0.00157    0.00516   -0.00383
AFIX  43
H9    2    0.728791    0.618140    0.018694    11.00000   -1.20000
AFIX   0
C10   1    0.506665    0.105722    0.207364    11.00000    0.01353    0.01900 =
         0.01215   -0.00133    0.00777   -0.00043
AFIX  43
H10   2    0.506924    0.094178    0.266101    11.00000   -1.20000
AFIX   0
C11   1    0.765417    0.603171    0.505727    11.00000    0.02110    0.01690 =
         0.02496   -0.00089    0.01098    0.00077
AFIX  43
H11   2    0.706300    0.592484    0.504791    11.00000   -1.20000
AFIX   0
C12   1    1.288752    1.112701    0.273970    11.00000    0.01312    0.01830 =
         0.01747    0.00129    0.00959    0.00503
AFIX  43
H12   2    1.225348    1.079468    0.227994    11.00000   -1.20000
AFIX   0
O1    5    1.218478    0.723972    0.148174    11.00000    0.01767    0.01624 =
         0.01208    0.00525    0.00578   -0.00257
O2    5    1.081972    0.530558    0.356297    11.00000    0.01679    0.02185 =
         0.01214   -0.00102    0.00392    0.00576
O3    5    0.739809    0.705743    0.175190    11.00000    0.01913    0.01844 =
         0.01753    0.00673    0.00980   -0.00166
O4    5    0.968440    0.736639    0.298850    11.00000    0.01423    0.01409 =
         0.01398   -0.00223    0.00462    0.00635
O5    5    0.671763    0.510349    0.224320    11.00000    0.01710    0.01930 =
         0.01589    0.00138    0.00731   -0.00883
O6    5    1.161420    0.550678    0.218810    11.00000    0.01887    0.02315 =
         0.02198    0.00872    0.01031   -0.00527
O7    5    1.070406    0.223809    0.218407    11.00000    0.01650    0.01637 =
         0.01858   -0.00035    0.01012   -0.00849
O8    5    0.775984    0.511530    0.447796    11.00000    0.01394    0.02007 =
         0.02011   -0.00893    0.00605   -0.00307
O9    5    0.864456    1.021848    0.307279    11.00000    0.01973    0.01711 =
         0.01813   -0.00230    0.01122    0.00561
O10   5    0.569176    0.203705    0.206891    11.00000    0.01792    0.01284 =
         0.01384   -0.00194    0.00844   -0.00652
O11   5    1.356223    1.030832    0.274612    11.00000    0.01730    0.01966 =
         0.02062   -0.00462    0.00995    0.00370
O12   5    1.307175    0.522405    0.443221    11.00000    0.01863    0.01896 =
         0.01644   -0.00741    0.00792   -0.00419
O13   5    0.852030    0.724004    0.070219    11.00000    0.01692    0.01121 =
         0.01852   -0.00915    0.00682   -0.00912
O14   5    1.330738    0.736785    0.031181    11.00000    0.02070    0.02097 =
         0.01633   -0.00598    0.01088   -0.01134
O15   5    1.274634    0.530894   -0.081495    11.00000    0.01955    0.01793 =
         0.01649   -0.00422    0.01048   -0.00679
O16   5    0.792845    0.202893    0.361858    11.00000    0.01549    0.01341 =
         0.01595   -0.00254    0.00708    0.00114
O17   5    0.443408    0.021142    0.136237    11.00000    0.01584    0.01717 =
         0.01876   -0.00282    0.00825   -0.00674
O18   5    0.552701    0.512111    0.328058    11.00000    0.02139    0.01809 =
         0.01687    0.00800    0.01335    0.00946
O19   5    0.942649    0.050174    0.161611    11.00000    0.02331    0.02468 =
         0.02064   -0.00480    0.01236   -0.01326
O20   5    0.781337    0.553071   -0.057679    11.00000    0.01781    0.02040 =
         0.02199   -0.01185    0.01038   -0.00427
O21   5    1.361974    0.702078    0.569220    11.00000    0.01586    0.01119 =
         0.01667   -0.00350    0.00779   -0.00294
O22   5    0.824539    0.706498    0.564194    11.00000    0.01926    0.01503 =
         0.01548   -0.01047    0.00693   -0.00680
O23   5    0.436040    0.707461    0.260268    11.00000    0.01572    0.01625 =
         0.02028    0.00571    0.00809    0.00941
O24   5    1.299405    1.236680    0.330457    11.00000    0.01444    0.01719 =
         0.02039   -0.00816    0.00849    0.00082

N1    4    1.036097    0.856424    0.486789    11.00000    0.00990    0.03061 =
         0.00926   -0.00491    0.00242   -0.00842
AFIX   7
H1A   2    1.092467    0.827092    0.533119    11.00000   -1.20000
H1B   2    1.032976    0.830965    0.432649    11.00000   -1.20000
AFIX   0
N2    4    0.960248    0.766449    0.493450    11.00000    0.01764    0.01690 =
         0.02390    0.00015    0.00934   -0.00132
AFIX 133
H2A   2    0.956571    0.809420    0.544137    11.00000   -1.20000
H2B   2    0.973097    0.649206    0.501667    11.00000   -1.20000
H2C   2    0.903551    0.784345    0.438719    11.00000   -1.20000
AFIX   0

N3    4    0.486278    0.356098    0.450229    11.00000    0.01477    0.01664 =
         0.01758    0.00005    0.00798   -0.00156
AFIX 133
H3A   2    0.427340    0.337158    0.398551    11.00000   -1.20000
H3B   2    0.531900    0.315284    0.437696    11.00000   -1.20000
H3C   2    0.494926    0.473385    0.462836    11.00000   -1.20000
AFIX   0
N4    4    0.493736    0.264183    0.532672    11.00000    0.02167    0.01986 =
         0.01604    0.00634    0.01244    0.00241
AFIX   7
H4A   2    0.546596    0.296543    0.583822    11.00000   -1.20000
H4B   2    0.445826    0.284133    0.543022    11.00000   -1.20000
AFIX   0

N5    4    0.548606    0.356259    0.034883    11.00000    0.01584    0.01544 =
         0.02093   -0.00253    0.00942   -0.00614
AFIX 137
H5A   2    0.600427    0.335835    0.028029    11.00000   -1.20000
H5B   2    0.560867    0.317510    0.093285    11.00000   -1.20000
H5C   2    0.536092    0.473656    0.029881    11.00000   -1.20000
AFIX   0
N6    4    0.466402    0.263444   -0.039318    11.00000    0.01890    0.02464 =
         0.01105    0.00037    0.00327   -0.00272
H6A   2    0.465082    0.313405   -0.084069    11.00000   -1.20000
H6B   2    0.415790    0.324399   -0.036316    11.00000   -1.20000

PART 1
N7    4    1.036470    0.174591    0.031612    10.33333    0.01793
AFIX 133
H7A   2    1.031168    0.075638   -0.002404    10.33333   -1.20000
H7B   2    1.007782    0.156758    0.067188    10.33333   -1.20000
H7C   2    1.099415    0.200112    0.070991    10.33333   -1.20000
AFIX   0
N8    4    0.990374    0.319883   -0.033563    10.33333    0.02545    0.00792 =
         0.03139    0.00087    0.01266    0.00717
AFIX   7
H8A   2    0.930933    0.294817   -0.075700    10.33333   -1.20000
H8B   2    0.989840    0.411156   -0.001033    10.33333   -1.20000
AFIX   0

PART 0
PART 2
N9    4    0.968610    0.174857    0.004521    10.33333    0.02120    0.03303 =
         0.01831    0.00946    0.00471    0.00307
AFIX 133
H9A   2    0.931832    0.162707   -0.060026    10.33333   -1.20000
H9B   2    0.930512    0.198713    0.029802    10.33333   -1.20000
H9C   2    1.001343    0.073334    0.030204    10.33333   -1.20000
AFIX   0
N10   4    1.035643    0.317719    0.026128    10.33333    0.02081    0.01901 =
         0.02579    0.00640    0.01754   -0.00281
AFIX   7
H10A  2    1.072631    0.294721    0.002425    10.33333   -1.20000
H10B  2    1.004803    0.415300   -0.000010    10.33333   -1.20000
AFIX   0

PART 0
PART 3
N11   4    0.973373    0.317057    0.010269    10.33333    0.02270    0.02049 =
         0.01446   -0.00514    0.00624   -0.00978
AFIX   7
H11A  2    0.912582    0.321160   -0.011043    10.33333   -1.20000
H11B  2    1.002931    0.300044    0.071218    10.33333   -1.20000
AFIX   0
N12   4    0.995097    0.176777   -0.036629    10.33333    0.01277    0.02170 =
         0.02189    0.01326    0.01522    0.00401
AFIX 133
H12A  2    0.958689    0.189518   -0.101176    10.33333   -1.20000
H12B  2    0.982129    0.071215   -0.019053    10.33333   -1.20000
H12C  2    1.058119    0.181491   -0.019115    10.33333   -1.20000
AFIX   0
HKLF 4

REM  mP in P21 #4
REM R1 =  0.0294 for    6380 Fo > 4sig(Fo)  and  0.0336 for all    6731 data
REM    477 parameters refined using     40 restraints

END

WGHT      0.0229      0.0000

REM Highest difference peak  0.304,  deepest hole -0.383,  1-sigma level  0.062
Q1    1   1.1684  0.4574  0.2497  11.00000  0.05    0.28
Q2    1   1.1353  0.3407  0.0153  11.00000  0.05    0.26
Q3    1   1.0198  0.4020  0.1823  11.00000  0.05    0.26
Q4    1   0.8377  0.8082  0.0858  11.00000  0.05    0.25
Q5    1   0.6398 -0.1251  0.2786  11.00000  0.05    0.24
Q6    1   0.4351  0.3633 -0.2081  11.00000  0.05    0.24
Q7    1   1.1410  0.3793  0.1721  11.00000  0.05    0.24
Q8    1   0.4359  0.5185 -0.0177  11.00000  0.05    0.23
Q9    1   0.6575  0.3949  0.2354  11.00000  0.05    0.23
Q10   1   1.0088  0.8587  0.2619  11.00000  0.05    0.23
Q11   1   0.8887  0.4824 -0.0977  11.00000  0.05    0.23
Q12   1   1.1002  0.6407  0.1804  11.00000  0.05    0.23
Q13   1   0.8997  0.3699 -0.0576  11.00000  0.05    0.22
Q14   1   0.8481  0.8646  0.4969  11.00000  0.05    0.22
Q15   1   1.2296  0.3550  0.1790  11.00000  0.05    0.22
Q16   1   0.5391  0.3874 -0.0696  11.00000  0.05    0.22
Q17   1   0.6989  0.7314  0.5329  11.00000  0.05    0.22
Q18   1   0.6557  0.3739  0.0565  11.00000  0.05    0.22
Q19   1   1.0582  0.0486  0.1178  11.00000  0.05    0.22
Q20   1   0.6236  0.2890  0.2665  11.00000  0.05    0.22
;
_shelx_res_checksum              13872

_shelx_hkl_file                  
;
   0  -9   0 225.789 126.187   5
   0  -9   1 176.258 102.598   5
   0  -9  -1 245.554 129.252   5
   0  -9  -2 1606.08 227.624   5
   0  -9   2 1827.62 240.088   5
   0  -9  -3-5.84235 102.649   5
   0  -9   3 224.828 106.794   5
   0  -9   4 5731.38 405.228   5
   0  -9  -4 6037.94 446.359   7
   0  -9   5 519.929 148.825   5
   0  -9  -5 519.128 182.881   7
   0  -9   6-77.3566 132.532   5
   0  -9  -9-68.6792 126.097   5
   0  -8   0 16970.1 631.834   3
   0  -8  -1 143.023 101.752   3
   0  -8   1 396.906 131.025   3
   0  -8   2 2285.39 245.892   3
   0  -8  -2 2005.27 229.162   3
   0  -8   2 1997.90 226.515   5
   0  -8  -3 21.2826 99.9201   3
   0  -8   3 224.648 99.0514   5
   0  -8   3 349.938 140.570   3
   0  -8  -4 408.819 163.317   7
   0  -8  -4 413.636 129.614   3
   0  -8   4 194.225 95.0111   5
   0  -8   5 230.413 110.321   5
   0  -8  -5 178.284 120.100   7
   0  -8  -5 343.460 139.900   3
   0  -8  -6 7294.98 458.402   7
   0  -8   6 7279.52 423.686   5
   0  -8  -7 339.580 137.196   7
   0  -8   7 36.3610 108.453   5
   0  -8   8 1120.02 189.484   5
   0  -8  -8 1093.27 201.108   7
   0  -8  -9 409.762 153.595   7
   0  -8   9 299.830 123.577   5
   0  -8  10 292.112 133.165   5
   0  -8  11 253.376 131.977   5
   0  -8  12 943.683 180.970   5
   0  -7   0-64.8979 82.6424   3
   0  -7   0 53.4311 62.0322   2
   0  -7  -1 1432.99 178.470   3
   0  -7   1 1069.15 158.359   3
   0  -7   2 14519.8 538.097   5
   0  -7  -2 14089.1 520.799   3
   0  -7   2 15153.4 550.040   3
   0  -7  -3 736.523 142.778   3
   0  -7   3 444.196 119.911   5
   0  -7   3 563.411 125.196   3
   0  -7   4 3200.65 269.609   3
   0  -7  -4 3198.08 255.276   3
   0  -7   4 3098.04 250.800   5
   0  -7  -5-31.6932 78.4947   3
   0  -7  -5-121.459 113.466   7
   0  -7   5 23.1861 80.2006   3
   0  -7   5-31.6188 94.1186   5
   0  -7  -6 89.9060 76.1519   3
   0  -7  -6 132.367 108.130   7
   0  -7   6 117.239 89.5604   5
   0  -7  -7 1431.19 175.522   3
   0  -7  -7 1117.88 186.126   7
   0  -7   7 1708.99 203.713   5
   0  -7   8 10412.2 472.697   5
   0  -7  -8 9594.96 495.459   7
   0  -7  -9-8.11931 121.368   7
   0  -7   9 12.4413 84.5360   5
   0  -7 -10 4737.53 365.174   7
   0  -7  10 4333.23 321.817   5
   0  -7 -11 570.684 149.396   7
   0  -7  11 493.977 136.027   5
   0  -7 -12 247.219 139.121   7
   0  -7  12 147.201 95.1495   5
   0  -7  13 142.114 96.5381   5
   0  -6   0 42640.4 821.868   3
   0  -6   0 41934.5 636.806   2
   0  -6  -1 331.930 77.3464   2
   0  -6   1 229.654 63.3499   2
   0  -6  -1 296.339 102.294   3
   0  -6   1 199.132 87.7428   3
   0  -6  -2 4800.27 248.743   2
   0  -6   2 4716.64 286.749   3
   0  -6  -2 5451.29 298.894   3
   0  -6  -3 1001.21 141.032   3
   0  -6   3 934.488 148.938   3
   0  -6   3 975.766 145.572   5
   0  -6   4 9769.07 413.844   3
   0  -6   4 9870.28 403.343   5
   0  -6  -4 9002.89 374.975   3
   0  -6  -5 57.1889 87.7126   3
   0  -6   5 50.0764 80.0758   5
   0  -6   5 73.5584 78.6138   3
   0  -6  -5 35.9939 101.724   7
   0  -6   6 7536.85 366.390   5
   0  -6  -6 8151.55 351.807   3
   0  -6   6 7927.86 378.327   3
   0  -6  -6 7961.58 406.557   7
   0  -6  -7-13.3395 93.4102   7
   0  -6  -7-0.79661 63.3297   3
   0  -6   7 3.11120 67.6373   5
   0  -6  -8 5660.67 355.756   7
   0  -6   8 6079.25 331.528   5
   0  -6  -8 5899.69 294.388   3
   0  -6  -9 1876.59 221.065   7
   0  -6   9 2208.09 212.015   5
   0  -6 -10 4911.40 352.285   7
   0  -6  10 5074.82 312.095   5
   0  -6 -11-86.2220 95.5884   7
   0  -6  11-20.8630 84.4928   5
   0  -6  12 2433.56 231.449   5
   0  -6 -12 2031.04 243.608   7
   0  -6  13 318.931 112.011   5
   0  -6 -13 232.130 122.506   7
   0  -6 -14 330.726 145.770   7
   0  -5   0 6.19212 64.1742   3
   0  -5   0-28.6593 46.5582   2
   0  -5  -1 498.074 78.6184   2
   0  -5   1 502.827 102.236   3
   0  -5   1 508.974 70.7264   2
   0  -5  -1 489.683 95.6406   3
   0  -5  -2 20090.7 450.998   2
   0  -5  -2 20423.1 509.316   3
   0  -5   2 20453.7 523.047   3
   0  -5  -3 312.324 84.6939   3
   0  -5  -3 203.231 76.2631   2
   0  -5   3 164.859 77.0340   3
   0  -5  -4 11273.0 374.302   3
   0  -5  -4 11139.6 377.774   2
   0  -5   4 11194.8 386.328   5
   0  -5   4 10757.9 387.205   3
   0  -5   5 326.025 81.5026   5
   0  -5   5 414.673 99.9512   3
   0  -5  -5 425.973 121.411   7
   0  -5  -5 460.848 92.5101   3
   0  -5  -6 226.209 71.6522   3
   0  -5  -6 302.070 109.180   7
   0  -5   6 303.179 96.4909   3
   0  -5   6 312.097 92.1447   5
   0  -5   7 1950.35 175.965   5
   0  -5  -7 1604.09 146.679   3
   0  -5  -7 1629.29 189.228   7
   0  -5  -8 7276.94 367.219   7
   0  -5  -8 7070.38 286.266   3
   0  -5   8 7434.57 334.929   5
   0  -5   9 284.902 31.6473   1
   0  -5  -9 537.042 129.608   7
   0  -5   9 330.346 90.9203   5
   0  -5  10 7610.78 346.241   5
   0  -5 -10 6707.53 371.044   7
   0  -5 -10 6724.64 305.940   5
   0  -5  11 264.502 87.8803   5
   0  -5 -11 138.792 100.274   7
   0  -5 -12 256.043 116.500   7
   0  -5  12 149.524 77.7764   5
   0  -5  13 464.687 115.074   5
   0  -5 -13 253.580 135.756   7
   0  -5 -14 852.079 182.050   7
   0  -5 -15-120.510 123.096   7
   0  -5 -16 750.496 178.452   7
   0  -4   0 10137.3 322.486   3
   0  -4   0 10045.1 252.426   2
   0  -4  -1 270.905 69.0706   3
   0  -4  -1 209.749 54.1639   2
   0  -4   1 254.865 44.6591   2
   0  -4   1 235.869 67.0525   3
   0  -4  -2 5872.19 226.310   2
   0  -4  -2 5806.63 239.964   3
   0  -4   2 6245.48 258.730   3
   0  -4   3 607.441 95.4080   3
   0  -4  -3 468.814 80.2027   2
   0  -4  -3 354.538 74.1991   3
   0  -4  -4 1191.85 114.777   3
   0  -4  -4 1112.31 121.147   2
   0  -4   4 1233.61 123.030   3
   0  -4   4 1159.64 119.003   5
   0  -4  -5 2695.08 186.227   2
   0  -4   5 2398.81 168.957   3
   0  -4  -5 2601.86 160.808   3
   0  -4  -5 2584.16 188.221   1
   0  -4   5 2131.25 157.695   5
   0  -4  -5 2580.09 196.467   7
   0  -4  -6 16205.4 473.029   7
   0  -4   6 16525.4 434.437   3
   0  -4  -6 16905.8 389.822   3
   0  -4   6 16278.2 428.095   5
   0  -4   7 301.733 73.1386   5
   0  -4  -7 264.332 61.3486   3
   0  -4  -7 98.1438 88.5014   7
   0  -4   8 76.6395 24.2939   1
   0  -4  -8-36.0508 83.7653   7
   0  -4  -8 48.8271 43.7505   3
   0  -4   8 14.4941 58.1179   5
   0  -4  -9 92.1012 81.2977   7
   0  -4   9 35.4137 25.8622   1
   0  -4   9 64.0919 61.4271   5
   0  -4  -9 19.5372 53.1550   5
   0  -4  -9 51.0780 44.5911   3
   0  -4  10 147.936 75.8032   5
   0  -4 -10 123.833 93.7047   7
   0  -4 -10 77.3340 56.7647   5
   0  -4  10 7.90832 23.3351   1
   0  -4 -11 183.045 88.5195   7
   0  -4  11 203.891 75.0378   5
   0  -4 -11 251.794 67.0253   5
   0  -4  12 4963.39 265.811   5
   0  -4 -12 4980.09 318.704   7
   0  -4  13 496.848 99.3102   5
   0  -4 -13 583.290 135.959   7
   0  -4 -14 276.768 131.254   7
   0  -4 -15 839.374 179.232   7
   0  -4 -16 650.000 193.048   7
   0  -4 -17 5.83778 106.033   7
   0  -3   0 82.8033 53.1079   3
   0  -3   0 44.0297 38.2523   2
   0  -3   1 32.7035 49.2999   3
   0  -3  -1 33.3706 46.6654   3
   0  -3   1 82.1821 30.7954   2
   0  -3  -1 51.3895 43.6682   2
   0  -3  -2 1810.02 116.897   2
   0  -3  -2 1561.62 110.647   3
   0  -3   2 1809.34 124.476   3
   0  -3  -3 1554.68 108.488   3
   0  -3  -3 1592.03 120.040   2
   0  -3   3 1578.25 120.382   3
   0  -3  -4 64832.9 791.397   7
   0  -3   4 64484.8 711.605   5
   0  -3  -4 63284.8 646.296   3
   0  -3   4 64982.1 727.966   3
   0  -3  -4 64911.9 761.627   2
   0  -3   5 1526.24 114.019   5
   0  -3   5 1403.01 117.881   3
   0  -3  -5 1447.94 136.029   7
   0  -3  -5 1457.12 134.894   1
   0  -3  -5 1458.24 103.796   3
   0  -3  -5 1459.42 131.533   2
   0  -3   6 1688.39 127.442   5
   0  -3  -6 1560.01 104.751   3
   0  -3  -6 1710.25 150.305   2
   0  -3   6 1972.72 149.426   6
   0  -3   6 1816.95 134.920   3
   0  -3  -6 2042.69 163.746   1
   0  -3  -6 1687.54 144.798   7
   0  -3  -7 1718.13 155.673   2
   0  -3   7 1749.76 75.2354   1
   0  -3  -7 1738.70 161.932   1
   0  -3   7 1856.32 132.882   5
   0  -3  -7 1841.84 110.770   3
   0  -3  -7 1711.44 157.480   7
   0  -3   7 1871.65 151.421   6
   0  -3  -8 41.7712 72.1363   7
   0  -3   8 97.0560 31.0633   1
   0  -3  -8-58.1030 47.7397   5
   0  -3  -8 88.4008 41.4129   3
   0  -3   8 54.9175 49.1395   5
   0  -3  -9 361.696 94.0474   7
   0  -3   9 168.675 38.2570   1
   0  -3   9 232.730 69.5279   5
   0  -3  -9 135.998 51.7474   5
   0  -3  10 802.984 71.5749   1
   0  -3  10 891.046 126.977   7
   0  -3  10 897.014 105.659   5
   0  -3 -10 968.485 137.253   7
   0  -3 -10 744.250 84.8280   5
   0  -3 -11 810.235 84.7136   5
   0  -3 -11 984.774 141.883   7
   0  -3  11 679.042 99.2205   5
   0  -3 -12 429.495 65.4811   5
   0  -3 -12 296.811 107.778   7
   0  -3  12 378.349 77.4750   5
   0  -3 -13 2881.76 242.322   7
   0  -3  13 2588.13 172.990   5
   0  -3 -14 1919.42 215.149   7
   0  -3 -15 227.859 117.007   7
   0  -3 -16 960.784 182.051   7
   0  -3 -17 745.638 188.267   7
   0  -3 -18 205.270 144.923   7
   0  -2   0 5632.24 132.477   2
   0  -2   0 5657.62 167.485   3
   0  -2  -1 944.849 71.7078   2
   0  -2   1 904.198 81.3156   3
   0  -2   1 913.536 48.1333   2
   0  -2  -1 951.633 78.1612   3
   0  -2  -2 5462.41 159.586   3
   0  -2  -2 5976.37 176.820   2
   0  -2   2 5608.84 174.960   3
   0  -2   3 297.591 54.4114   3
   0  -2  -3 414.982 63.5960   2
   0  -2   3 370.140 59.2528   5
   0  -2  -3 344.588 50.6951   3
   0  -2  -3 371.655 71.5508   7
   0  -2   3 392.937 61.0145   6
   0  -2   4 28530.4 439.773   6
   0  -2  -4 27874.3 455.787   1
   0  -2  -4 27488.0 449.367   7
   0  -2  -4 27179.8 333.344   3
   0  -2   4 29333.1 399.123   5
   0  -2   4 27803.0 396.074   3
   0  -2  -4 28208.0 454.240   2
   0  -2   5 2016.43 131.316   4
   0  -2  -5 1736.33 87.7774   3
   0  -2   5 1792.08 107.921   3
   0  -2   5 1833.91 107.218   5
   0  -2  -5 1801.02 125.776   7
   0  -2   5 2005.08 127.154   6
   0  -2  -5 1839.62 133.515   2
   0  -2  -5 1651.04 126.959   1
   0  -2   5 1886.74 69.9805   1
   0  -2  -6 33832.1 347.373   3
   0  -2   6 36008.9 561.214   4
   0  -2   6 34684.8 551.483   6
   0  -2   6 34396.7 318.517   1
   0  -2   6 34212.6 317.559   2
   0  -2   6 33263.1 453.030   5
   0  -2  -6 33496.7 416.293   5
   0  -2  -6 33786.3 557.400   1
   0  -2  -6 34116.6 545.789   7
   0  -2  -6 34533.1 569.054   2
   0  -2  -7 39.9139 25.0315   3
   0  -2   7 13.9174 53.4060   6
   0  -2  -7 22.7650 65.6146   1
   0  -2  -7 98.0099 39.8284   5
   0  -2  -7-13.0244 49.7258   2
   0  -2   7 71.8409 33.7301   1
   0  -2   7 84.6252 33.0692   2
   0  -2   7 2.60498 54.7927   4
   0  -2  -7 59.1552 57.3981   7
   0  -2   7 74.4912 38.1045   5
   0  -2  -8 5337.46 242.585   7
   0  -2  -8 5491.90 263.216   2
   0  -2   8 5925.16 260.890   6
   0  -2   8 5992.37 232.736   7
   0  -2   8 6131.71 260.941   4
   0  -2   8 5759.74 162.906   1
   0  -2   8 5710.65 172.872   2
   0  -2  -8 5423.10 171.421   5
   0  -2  -8 5251.38 251.147   1
   0  -2   8 5365.61 196.122   5
   0  -2  -9 474.035 58.6152   5
   0  -2   9 641.380 69.8774   1
   0  -2   9 584.511 86.2407   7
   0  -2   9 530.634 67.0541   2
   0  -2   9 609.623 103.098   4
   0  -2  -9 526.388 98.7261   1
   0  -2   9 501.406 71.4401   5
   0  -2  -9 396.073 87.0292   7
   0  -2  10 4195.98 223.059   7
   0  -2 -10 3878.31 146.714   5
   0  -2  10 3997.83 180.310   5
   0  -2 -10 4290.85 239.380   7
   0  -2  10 4157.11 176.184   2
   0  -2 -11 272.970 94.6445   7
   0  -2 -11 243.583 43.7372   5
   0  -2  11 200.174 64.3319   2
   0  -2  11 327.921 88.2142   7
   0  -2  11 274.822 61.0150   5
   0  -2 -12 4451.36 271.012   7
   0  -2  12 5059.43 225.247   2
   0  -2  12 4769.40 196.942   5
   0  -2 -12 4166.72 147.363   5
   0  -2 -13 1129.09 156.206   7
   0  -2  13 1205.52 104.284   5
   0  -2  13 1144.40 122.004   2
   0  -2 -14 4359.83 286.871   7
   0  -2  14 4564.64 239.696   2
   0  -2 -15 2000.49 209.971   7
   0  -2  15 1996.43 166.138   2
   0  -2 -16 560.930 136.460   7
   0  -2 -17 968.656 181.656   7
   0  -1   0 0.60771 12.4792   2
   0  -1   0 23.5898 22.1889   3
   0  -1   1 108.151 28.1294   3
   0  -1  -1 92.3577 23.6891   3
   0  -1  -1 71.9648 22.9167   2
   0  -1   2 99370.8 519.119   5
   0  -1   2 99165.3 531.005   3
   0  -1  -2 98706.1 446.342   3
   0  -1   2 100743. 582.680   4
   0  -1  -2 100669. 598.197   7
   0  -1   2 102998. 572.469   6
   0  -1  -2 99762.2 592.828   2
   0  -1   3 586.416 39.1859   2
   0  -1   3 588.921 36.5474   1
   0  -1  -3 577.252 65.8683   2
   0  -1  -3 485.544 38.4478   3
   0  -1  -3 624.415 70.0992   1
   0  -1  -3 618.064 68.3153   7
   0  -1   3 529.403 63.7030   4
   0  -1   3 597.273 64.4055   6
   0  -1   3 517.982 53.7637   3
   0  -1   3 543.452 52.7561   5
   0  -1   4 12655.9 264.275   6
   0  -1  -4 12214.9 252.346   7
   0  -1  -4 10785.9 137.683   3
   0  -1  -4 12166.0 259.000   1
   0  -1   4 12440.9 182.314   2
   0  -1  -4 12230.6 266.034   2
   0  -1   4 12709.2 170.232   1
   0  -1  -4 12111.4 185.912   5
   0  -1   4 12338.3 205.733   5
   0  -1   4 11951.0 199.753   3
   0  -1   4 13115.8 261.466   4
   0  -1   5 1750.91 86.1524   5
   0  -1   5 1569.32 107.961   6
   0  -1   5 1617.14 108.092   4
   0  -1  -5 1511.87 104.534   7
   0  -1  -5 977.045 41.8441   3
   0  -1   5 1660.38 85.5841   2
   0  -1   5 1687.37 77.0250   1
   0  -1  -5 1762.95 114.153   1
   0  -1  -5 1706.25 115.141   2
   0  -1  -5 1580.04 71.8502   5
   0  -1   5 1712.01 97.6628   7
   0  -1   6 1444.34 82.2087   5
   0  -1   6 1464.76 113.840   4
   0  -1  -6 1461.56 110.664   7
   0  -1  -6 1534.28 114.485   2
   0  -1   6 1417.03 81.3314   1
   0  -1   6 1441.45 89.0744   2
   0  -1  -6 1287.83 100.879   4
   0  -1  -6 1442.74 71.2304   5
   0  -1  -6 1502.88 112.103   1
   0  -1   6 1574.02 118.547   6
   0  -1   6 1808.73 108.911   7
   0  -1   7 229.629 48.9724   1
   0  -1  -7 411.593 67.5280   4
   0  -1  -7 283.324 62.8088   7
   0  -1   7 327.099 61.8883   7
   0  -1   7 349.191 48.9237   5
   0  -1  -7 241.443 35.0840   5
   0  -1  -7 298.779 73.2424   2
   0  -1   7 266.944 63.0553   4
   0  -1   7 384.294 77.3208   6
   0  -1   7 284.193 52.6556   2
   0  -1  -7 386.168 73.8617   1
   0  -1   8 35136.3 581.427   4
   0  -1   8 34277.1 408.613   5
   0  -1   8 34995.2 487.927   2
   0  -1  -8 33625.4 545.937   4
   0  -1  -8 34236.1 354.445   5
   0  -1   8 34490.1 529.779   7
   0  -1  -8 34032.4 555.045   7
   0  -1  -8 35038.3 564.358   1
   0  -1   8 35214.1 614.196   6
   0  -1  -8 35453.6 598.237   2
   0  -1   8 34273.3 453.445   1
   0  -1  -9 1303.81 132.628   2
   0  -1   9 1368.42 88.5586   5
   0  -1   9 1319.89 118.518   7
   0  -1  -9 1290.95 125.686   7
   0  -1   9 1578.31 122.092   2
   0  -1  -9 1448.91 135.756   1
   0  -1   9 1344.80 138.235   6
   0  -1   9 1371.24 133.476   4
   0  -1  -9 1404.96 129.498   4
   0  -1  -9 1320.15 75.6343   5
   0  -1 -10 22123.7 504.424   4
   0  -1 -10 21836.3 496.583   7
   0  -1 -10 22025.6 498.585   1
   0  -1  10 22109.6 478.933   7
   0  -1  10 21524.8 517.608   4
   0  -1 -10 19793.3 285.977   5
   0  -1  10 21425.6 446.979   2
   0  -1 -10 23150.2 538.953   2
   0  -1  10 21305.5 338.672   5
   0  -1  11 1998.13 109.614   5
   0  -1 -11 2228.64 176.182   1
   0  -1 -11 2342.01 181.381   7
   0  -1  11 1903.34 159.794   7
   0  -1 -11 2199.55 176.676   4
   0  -1 -11 1694.19 85.6216   5
   0  -1  11 2286.38 166.477   2
   0  -1 -12 767.020 115.386   7
   0  -1  12 891.964 76.1868   5
   0  -1  12 893.190 119.075   2
   0  -1 -12 708.362 57.4515   5
   0  -1 -12 758.380 115.077   4
   0  -1 -13 239.985 34.1879   5
   0  -1  13 332.213 85.8313   2
   0  -1  13 282.467 49.3499   5
   0  -1 -13 437.273 112.752   7
   0  -1 -14 1358.47 168.237   7
   0  -1  14 1360.08 152.853   2
   0  -1  15 239.724 95.6697   2
   0  -1  16 2242.85 208.691   2
   0   0  -2 12641.0 164.452   2
   0   0   2 13256.0 154.125   1
   0   0   2 6506.57 129.425   6
   0   0   2 13202.1 168.552   4
   0   0  -2 2644.65 74.6777   4
   0   0  -2 13134.5 159.419   7
   0   0  -3 41.4361 34.6055   4
   0   0   3-9.04460 32.3597   6
   0   0  -3 73.6281 20.5944   5
   0   0   3 39.3048 30.9360   4
   0   0  -3 44.0860 32.7284   1
   0   0   3 12.9401 30.4095   1
   0   0  -3 52.6412 33.0228   7
   0   0   3 66.3553 18.7512   5
   0   0   3 82.5179 37.9588   2
   0   0   3 50.5602 30.6239   7
   0   0  -3 40.2270 34.4289   2
   0   0   4 10767.0 206.804   7
   0   0   4 10856.4 237.938   6
   0   0  -4 10821.9 206.394   7
   0   0  -4 10185.2 211.449   4
   0   0  -4 10466.8 210.611   2
   0   0   4 10816.9 219.544   4
   0   0  -4 10919.3 199.309   1
   0   0   4 10836.7 141.838   5
   0   0  -4 11298.9 146.716   5
   0   0   4 11057.1 203.922   1
   0   0   4 10670.2 213.920   2
   0   0   5 9.28315 38.8937   7
   0   0   5 36.8075 41.6403   1
   0   0   5-6.66537 23.2328   5
   0   0   5 24.0062 43.6009   6
   0   0  -5 35.7007 22.8794   5
   0   0  -5-3.77451 38.6508   2
   0   0   5 27.7002 38.8272   4
   0   0   5-4.90988 42.5581   2
   0   0  -5 50.9438 35.6710   7
   0   0  -5 35.6173 41.1601   4
   0   0  -5 42.1567 38.3705   1
   0   0   6 44111.6 497.568   1
   0   0  -6 44660.2 518.345   7
   0   0   6 46000.3 595.745   6
   0   0   6 45735.5 353.264   5
   0   0  -6 44932.4 538.340   4
   0   0  -6 44860.5 489.603   1
   0   0  -6 44544.5 351.854   5
   0   0  -6 45309.1 531.395   2
   0   0   6 46717.8 527.236   7
   0   0   6 46495.2 550.045   4
   0   0   6 44421.5 528.996   2
   0   0  -7 410.946 67.1164   7
   0   0  -7 469.984 71.1339   4
   0   0   7 385.275 68.2978   2
   0   0   7 530.306 46.2091   5
   0   0  -7 512.115 66.3602   1
   0   0   7 471.069 83.2951   6
   0   0  -7 359.378 63.8899   2
   0   0   7 436.824 69.2619   7
   0   0  -7 441.530 42.3227   5
   0   0   7 485.909 77.2442   4
   0   0   8 12311.4 321.077   7
   0   0  -8 12885.7 325.885   7
   0   0  -8 12112.6 327.388   4
   0   0  -8 11691.7 202.901   5
   0   0  -8 13198.9 309.206   1
   0   0   8 11999.4 207.636   5
   0   0   8 12316.0 330.945   2
   0   0   8 12945.8 343.581   4
   0   0   8 12233.6 360.913   6
   0   0  -8 13042.3 329.711   2
   0   0   9 3001.82 109.318   5
   0   0   9 3081.65 185.075   4
   0   0  -9 3144.11 182.074   4
   0   0  -9 3271.86 180.798   2
   0   0  -9 2873.71 107.831   5
   0   0  -9 3205.56 175.498   7
   0   0   9 3217.17 208.728   6
   0   0   9 2775.56 174.268   2
   0   0  -9 3099.36 162.352   1
   0   0   9 3106.56 180.250   7
   0   0  10 7370.53 286.094   7
   0   0 -10 7138.87 276.426   7
   0   0  10 6563.56 166.682   5
   0   0 -10 7209.65 289.011   4
   0   0 -10 7459.10 285.203   2
   0   0  10 6860.65 286.416   4
   0   0 -10 6362.20 163.205   5
   0   0 -10 7159.46 260.083   1
   0   0  10 7174.09 289.111   2
   0   0  11 1242.21 77.8684   5
   0   0 -11 1677.79 149.743   2
   0   0  11 1592.02 154.582   2
   0   0  11 1210.42 132.263   7
   0   0 -11 1464.44 148.079   4
   0   0 -11 1427.70 129.642   1
   0   0 -11 1081.05 73.3619   5
   0   0 -12 3259.82 226.475   4
   0   0 -12 3581.55 207.096   1
   0   0  12 3617.29 230.518   2
   0   0  13 465.086 111.025   2
   0   0 -13 276.505 88.4472   4
   0   0 -14 244.514 98.2882   4
   0   0  14 317.525 98.2254   2
   0   0 -15 425.218 111.133   4
   0   0  15 233.318 105.927   2
   0   0  16 844.156 151.132   2
   0   0 -16 878.634 150.182   4
   0   0  17 2566.51 248.861   2
   0   0 -17 2055.31 223.738   4
   0   1   0 30.5618 16.7502   2
   0   1   0-4.31423 18.3247   3
   0   1   1 190.072 32.8962   2
   0   1  -1 138.942 26.6971   3
   0   1   1-4.13416 18.6577   3
   0   1   2 99431.8 449.652   3
   0   1  -2 101298. 569.491   6
   0   1  -2 101212. 580.937   4
   0   1   2 98447.0 590.647   2
   0   1  -2 101935. 533.479   3
   0   1   3 613.539 71.4326   2
   0   1  -3 589.312 39.4662   2
   0   1   3 561.987 59.8524   4
   0   1  -3 654.800 54.0305   3
   0   1   3 704.699 77.4749   7
   0   1  -3 611.561 64.9671   6
   0   1  -3 542.508 62.6837   4
   0   1   3 515.705 38.6970   3
   0   1   4 12367.8 244.197   4
   0   1  -4 11059.4 202.059   5
   0   1  -4 11989.9 201.850   3
   0   1   4 12990.6 263.342   7
   0   1  -4 12275.7 179.609   2
   0   1  -4 12087.9 251.893   4
   0   1   4 11513.8 143.744   3
   0   1  -4 12315.2 259.576   6
   0   1   4 12135.1 264.213   2
   0   1  -5 1533.62 80.5876   2
   0   1   5 1632.20 113.375   2
   0   1   5 1368.29 46.5975   3
   0   1   5 1506.80 105.465   7
   0   1  -5 1647.84 108.035   4
   0   1  -5 1426.71 104.143   6
   0   1  -5 1451.68 79.2533   5
   0   1   5 1533.16 100.853   4
   0   1  -5 1328.99 75.4884   3
   0   1  -6 1536.35 114.009   4
   0   1  -6 1437.91 82.2027   5
   0   1   6 1548.20 118.730   2
   0   1  -6 1457.20 115.932   6
   0   1  -6 1495.09 79.5499   3
   0   1   6 1433.30 112.091   7
   0   1   6 1507.02 109.271   4
   0   1  -6 1523.42 88.5800   2
   0   1  -7 255.716 44.0477   5
   0   1  -7 316.719 41.6793   3
   0   1  -7 297.081 64.7460   4
   0   1   7 360.565 69.4777   4
   0   1   7 341.043 70.3712   7
   0   1   7 272.859 70.3232   2
   0   1  -7 293.965 51.8697   2
   0   1  -7 232.449 63.2608   6
   0   1  -8 34193.8 569.569   4
   0   1   8 34509.0 556.045   4
   0   1  -8 33248.6 404.871   5
   0   1   8 35047.1 570.035   7
   0   1  -8 33007.5 594.283   6
   0   1   8 34789.9 617.066   6
   0   1  -8 34451.3 485.233   2
   0   1  -8 34366.7 364.926   3
   0   1   8 34662.5 590.055   2
   0   1   9 1322.54 128.825   7
   0   1  -9 1293.50 74.8586   3
   0   1  -9 1399.24 109.509   2
   0   1   9 1192.10 136.039   6
   0   1  -9 1456.30 135.817   4
   0   1   9 1394.61 141.245   2
   0   1   9 1350.67 124.937   4
   0   1  10 21769.5 533.730   2
   0   1  10 22197.7 510.847   4
   0   1 -10 22215.5 448.086   2
   0   1 -10 20605.2 277.258   3
   0   1  10 20866.3 496.319   7
   0   1 -10 22292.7 515.667   4
   0   1 -11 1640.72 77.2439   3
   0   1  11 2181.94 193.804   2
   0   1  11 2030.20 178.969   7
   0   1 -11 2074.93 172.145   4
   0   1 -11 2129.83 158.251   2
   0   1  12 887.488 138.573   2
   0   1 -12 911.608 127.670   4
   0   1 -12 905.070 113.384   2
   0   1 -13 428.489 97.3157   2
   0   1  13 277.647 101.656   2
   0   1 -13 394.270 101.556   4
   0   1  14 1418.16 180.630   2
   0   1 -14 1032.08 156.655   4
   0   1 -15 238.375 93.5839   4
   0   1  15 413.102 133.965   2
   0   1  16 1685.77 210.438   2
   0   1 -16 1454.22 190.758   4
   0   1  17 2935.10 283.035   2
   0   1 -17 2397.66 243.078   4
   0   1  18 440.202 160.270   2
   0   1 -18 148.436 110.369   4
   0   1  19 2016.41 256.090   2
   0   2   0 5592.01 168.806   3
   0   2   0 5493.32 131.566   2
   0   2  -1 985.320 49.9034   2
   0   2  -1 919.338 77.2579   3
   0   2   1 985.051 80.6559   3
   0   2   1 969.094 70.2105   2
   0   2   2 5754.69 173.463   2
   0   2   2 5580.35 165.590   3
   0   2  -2 5844.80 176.898   3
   0   2  -2 5640.02 170.811   6
   0   2   3 363.396 50.8152   3
   0   2  -3 408.738 62.5456   6
   0   2   3 303.645 63.5295   2
   0   2  -3 369.934 60.5663   3
   0   2  -3 326.504 65.0860   4
   0   2  -4 28929.0 442.529   4
   0   2  -4 28451.0 404.787   3
   0   2  -4 27271.2 425.613   6
   0   2   4 27884.5 335.769   3
   0   2   4 27355.7 445.550   2
   0   2  -5 1848.97 65.9166   2
   0   2   5 1817.05 87.5499   3
   0   2  -5 1763.47 121.593   4
   0   2  -5 1754.78 122.687   6
   0   2  -5 1975.37 113.500   3
   0   2   5 1844.70 134.165   2
   0   2   6 33924.4 512.642   4
   0   2   6 33414.4 554.865   7
   0   2  -6 34107.5 457.592   3
   0   2  -6 33563.5 535.231   4
   0   2   6 33469.9 347.684   3
   0   2   6 33235.9 560.369   2
   0   2  -6 33388.6 540.654   6
   0   2  -6 33849.4 320.530   2
   0   2   7-1.94939 61.8251   7
   0   2   7 73.0290 24.8841   3
   0   2   7 153.249 54.5801   4
   0   2  -7 111.300 61.9354   6
   0   2  -7 31.3447 48.7132   4
   0   2   7 117.495 66.0473   2
   0   2  -7 54.9387 30.9303   2
   0   2  -7 26.0921 35.8870   3
   0   2   8 5766.77 243.323   4
   0   2  -8 5460.88 253.551   6
   0   2   8 5517.36 257.469   7
   0   2  -8 5538.47 248.422   4
   0   2  -8 5851.21 171.180   2
   0   2  -8 5614.38 194.812   3
   0   2   8 5257.71 119.943   3
   0   2   8 5387.76 259.955   2
   0   2  -9 621.465 68.1069   2
   0   2  -9 577.322 103.813   6
   0   2   9 361.046 92.5374   2
   0   2   9 600.238 99.6628   4
   0   2   9 535.783 111.466   7
   0   2  -9 515.120 71.9856   3
   0   2  -9 619.536 103.677   4
   0   2 -10 4134.51 171.501   3
   0   2 -10 4227.46 175.177   2
   0   2  10 3834.14 243.922   2
   0   2 -10 4066.18 236.438   4
   0   2  10 4200.84 253.149   7
   0   2 -10 3863.24 245.915   6
   0   2  10 4284.55 230.905   4
   0   2 -11 195.241 63.8415   2
   0   2 -11 293.399 58.4937   3
   0   2 -11 347.629 86.6583   4
   0   2 -11 100.840 74.7551   6
   0   2  11 370.402 119.770   2
   0   2 -12 4774.41 179.101   3
   0   2 -12 4962.88 215.420   2
   0   2  12 4765.64 296.816   2
   0   2 -12 4777.89 283.801   4
   0   2 -13 970.522 149.630   4
   0   2 -13 958.457 107.277   2
   0   2  13 1139.66 173.002   2
   0   2  14 4800.12 328.158   2
   0   2 -14 4649.10 301.994   4
   0   2  15 2582.23 260.459   2
   0   2 -15 2010.56 219.776   4
   0   2  16 516.289 138.739   2
   0   2 -16 350.575 113.198   4
   0   2  17 302.732 146.798   2
   0   2 -17 423.493 125.851   4
   0   2 -18 182.603 132.719   4
   0   2  18 27.9973 121.283   2
   0   3   0 12.2869 50.1416   3
   0   3   0 17.5755 37.8997   2
   0   3  -1 90.3720 52.4021   3
   0   3  -1 84.2500 34.0307   2
   0   3   1 162.136 55.0204   2
   0   3   1 122.201 53.1133   3
   0   3   2 1689.27 113.839   2
   0   3   2 1642.89 115.155   3
   0   3  -2 1654.60 70.2976   2
   0   3  -2 1743.61 122.488   3
   0   3   3 1514.49 116.059   2
   0   3   3 1506.24 106.516   3
   0   3  -3 1672.33 123.601   3
   0   3  -3 1525.66 112.545   6
   0   3  -3 1535.40 54.7749   2
   0   3  -4 66208.4 733.988   3
   0   3  -4 62970.7 715.745   6
   0   3   4 62569.6 740.055   2
   0   3  -4 64458.9 752.130   4
   0   3   4 66107.0 659.648   3
   0   3  -5 1542.30 126.559   6
   0   3  -5 1668.52 137.314   4
   0   3  -5 1601.84 122.326   3
   0   3   5 1455.85 129.605   2
   0   3   5 1405.09 100.695   3
   0   3  -6 1900.40 145.306   4
   0   3   6 1743.81 108.993   3
   0   3   6 1639.03 145.246   2
   0   3  -6 1856.74 134.732   3
   0   3  -6 2146.26 154.458   6
   0   3  -7 1785.33 145.232   6
   0   3   7 1930.12 165.394   2
   0   3   7 1902.44 110.747   3
   0   3  -7 1989.59 155.490   4
   0   3   7 2018.50 148.830   4
   0   3  -7 1905.35 137.131   3
   0   3  -7 1485.16 56.3862   2
   0   3   8 124.843 78.6067   2
   0   3  -8-1.02568 48.7423   3
   0   3   8 105.391 43.2371   3
   0   3  -8 94.0546 24.9324   2
   0   3   8 37.5669 57.4912   4
   0   3  -8 99.9419 64.5209   6
   0   3  -8 72.0502 67.9311   4
   0   3   9 226.880 43.4068   3
   0   3  -9 255.524 68.1691   3
   0   3  -9 260.158 79.8281   4
   0   3  -9 257.513 38.1048   2
   0   3   9 215.651 83.7095   4
   0   3  -9 253.974 87.3220   6
   0   3   9 189.023 92.3046   2
   0   3  10 843.849 62.9102   3
   0   3 -10 1445.37 99.9518   2
   0   3 -10 848.053 102.431   3
   0   3 -10 700.354 122.880   4
   0   3  10 1038.31 158.404   2
   0   3 -10 836.199 131.648   6
   0   3 -11 735.225 91.3191   3
   0   3 -11 818.923 137.643   6
   0   3 -11 915.564 136.823   4
   0   3  11 622.641 137.907   2
   0   3 -11 780.833 70.0996   2
   0   3  12 366.208 120.604   2
   0   3 -12 422.951 60.2619   2
   0   3 -12 449.513 116.339   6
   0   3 -12 381.407 103.372   4
   0   3 -12 351.837 72.5986   3
   0   3 -13 2429.21 238.147   6
   0   3  13 2930.43 265.086   2
   0   3 -13 2569.92 229.848   4
   0   3  14 2472.95 257.209   2
   0   3 -14 1924.85 216.919   4
   0   3 -15 17.9956 85.6808   4
   0   3  15 51.8866 101.099   2
   0   3  16 1368.87 210.756   2
   0   3 -16 1006.19 173.512   4
   0   3 -17 793.332 154.168   4
   0   3  17 1104.35 212.320   2
   0   4   0 10404.7 324.024   3
   0   4   0 10140.7 256.901   2
   0   4   1 228.086 68.8349   3
   0   4  -1 321.168 75.6675   3
   0   4  -1 261.466 50.8482   2
   0   4   1 258.507 57.1721   2
   0   4   2 6047.67 228.245   2
   0   4  -2 6050.62 162.436   2
   0   4   2 6013.40 244.188   3
   0   4  -2 6027.75 253.544   3
   0   4  -3 609.279 90.7728   6
   0   4   3 308.596 70.3266   2
   0   4   3 492.650 82.2270   3
   0   4  -3 457.128 82.9626   3
   0   4  -3 415.151 42.4940   2
   0   4   4 1356.71 118.536   3
   0   4  -4 1193.97 120.827   6
   0   4   4 1070.33 120.260   2
   0   4  -4 1225.37 129.462   4
   0   4  -4 1262.17 124.997   3
   0   4  -5 2404.79 168.960   3
   0   4  -5 2299.27 178.887   4
   0   4  -5 2458.10 168.634   6
   0   4   5 2597.64 157.975   3
   0   4   5 2303.99 173.932   2
   0   4   6 16552.0 464.949   2
   0   4  -6 16564.3 457.788   4
   0   4  -6 17820.2 455.737   3
   0   4  -6 16430.0 444.596   6
   0   4   6 16362.2 380.236   3
   0   4  -7 477.982 96.6867   3
   0   4  -7 200.212 83.0305   4
   0   4  -7 238.945 81.8560   6
   0   4   7 200.468 56.4081   3
   0   4   7 250.412 91.0548   2
   0   4   8 47.4301 87.7299   2
   0   4  -8 147.083 80.0726   4
   0   4  -8 122.045 79.3413   3
   0   4   8-15.3640 49.2100   3
   0   4  -8 97.3378 71.6549   6
   0   4  -9 40.4111 72.5568   4
   0   4  -9 37.7413 69.4961   6
   0   4  -9 0.17305 74.2311   3
   0   4   9 5.94726 46.9197   3
   0   4   9 53.5397 92.4978   2
   0   4 -10 19.7953 71.2971   4
   0   4  10 110.274 46.3281   3
   0   4 -10 68.3412 79.5971   6
   0   4 -10-15.8146 64.7720   3
   0   4  10-37.8284 94.8898   2
   0   4 -11 268.187 90.6354   4
   0   4 -11 221.921 92.7287   6
   0   4  11 295.383 115.385   2
   0   4 -11 282.955 81.0531   3
   0   4  12 5099.87 350.198   2
   0   4 -12 5462.26 336.192   4
   0   4 -12 5502.72 340.329   6
   0   4 -13 651.462 137.695   6
   0   4  13 604.669 156.519   2
   0   4 -13 813.688 144.469   4
   0   4  14 603.964 162.288   2
   0   4 -14 472.496 131.683   4
   0   4 -14 251.933 114.586   6
   0   4 -15 1236.69 188.423   4
   0   4  15 918.301 194.596   2
   0   4 -16 314.319 128.441   4
   0   4  16 410.931 154.002   2
   0   5   0-62.2425 56.6521   2
   0   5   0-37.9498 60.8052   3
   0   5   1 435.444 80.7212   2
   0   5  -1 447.331 87.8862   3
   0   5  -1 607.025 76.4892   2
   0   5   1 588.703 105.009   3
   0   5   2 20898.1 458.493   2
   0   5  -2 21579.0 353.039   2
   0   5   2 21431.2 515.335   3
   0   5   3 214.114 73.3508   3
   0   5  -3 248.967 46.3673   2
   0   5   3 270.717 84.2134   2
   0   5  -3 234.608 71.6322   6
   0   5   4 10760.9 368.250   2
   0   5  -4 11221.9 379.517   6
   0   5  -4 11295.1 192.710   2
   0   5  -4 10999.9 390.214   4
   0   5   4 11925.9 380.770   3
   0   5   5 370.239 91.3579   3
   0   5  -5 303.292 98.6223   4
   0   5  -5 455.151 97.6335   6
   0   5   5 393.243 107.359   2
   0   5  -6 283.944 99.8090   4
   0   5  -6 172.346 69.0059   6
   0   5   6 159.730 88.9801   2
   0   5   6 253.085 71.0223   3
   0   5  -7 1688.25 179.415   4
   0   5   7 1676.68 189.126   2
   0   5  -7 1512.22 166.060   6
   0   5   7 1556.18 144.494   3
   0   5  -8 6773.46 334.891   6
   0   5   8 7084.59 359.275   2
   0   5  -8 6955.42 349.492   4
   0   5   8 6797.26 278.798   3
   0   5  -9 477.267 113.951   6
   0   5  -9 573.916 127.066   4
   0   5   9 396.316 80.7055   3
   0   5   9 535.024 137.635   2
   0   5 -10 7009.34 363.704   6
   0   5  10 7805.11 409.549   2
   0   5 -10 7726.13 387.507   4
   0   5 -11 214.923 102.794   6
   0   5  11 287.762 126.732   2
   0   5 -11 244.631 110.002   4
   0   5 -12 288.466 126.426   6
   0   5 -12 150.965 94.9830   4
   0   5  12 190.024 126.926   2
   0   5 -13 209.164 101.530   4
   0   5 -13 208.659 107.477   6
   0   5  13 482.566 147.333   2
   0   5  14 594.182 169.849   2
   0   5 -14 715.649 161.705   6
   0   5 -14 850.214 168.090   4
   0   5 -15 192.144 118.554   4
   0   5 -15 104.326 107.263   6
   0   6   0 42591.6 650.458   2
   0   6   1 360.844 91.9986   2
   0   6  -1 376.365 73.2870   2
   0   6  -2 5158.01 202.029   2
   0   6   2 5212.91 262.105   2
   0   6  -3 965.216 87.9562   2
   0   6  -3 689.931 121.901   6
   0   6   3 877.886 133.836   2
   0   6  -4 9471.28 386.240   6
   0   6   4 10093.7 389.118   2
   0   6  -4 9665.48 211.014   2
   0   6   5 32.3608 81.5146   2
   0   6  -5 165.169 68.5619   6
   0   6  -5 72.8988 77.6626   4
   0   6  -6 7866.55 365.353   6
   0   6   6 8109.81 376.230   2
   0   6  -6 8197.42 388.829   4
   0   6  -7 46.9655 68.2002   6
   0   6  -7 33.3196 75.9873   4
   0   6   7-79.5809 114.047   2
   0   6  -8 6540.64 366.709   4
   0   6  -8 6210.23 345.245   6
   0   6   8 6103.38 358.840   2
   0   6  -9 2269.27 220.117   6
   0   6  -9 2137.44 223.177   4
   0   6   9 1979.04 220.972   2
   0   6 -10 5092.03 340.843   4
   0   6 -10 4721.39 322.539   6
   0   6  10 5092.99 364.475   2
   0   6 -11-38.5768 87.0132   6
   0   6 -11 21.3039 83.0374   4
   0   6  11-62.6732 104.267   2
   0   6  12 2259.85 268.625   2
   0   6 -12 2041.95 246.572   6
   0   6 -12 2265.23 251.596   4
   0   6  13 347.499 146.406   2
   0   6 -13 115.638 96.2688   4
   0   6 -13 432.970 145.653   6
   0   6 -14-13.1964 110.915   6
   0   7   0 5.53337 62.7369   2
   0   7   1 1330.36 144.197   2
   0   7  -1 1030.03 114.481   2
   0   7  -2 15415.9 376.317   2
   0   7   2 14460.3 455.710   2
   0   7  -3 743.923 131.297   6
   0   7  -3 536.777 73.3593   2
   0   7   3 532.856 114.268   2
   0   7   4 3261.02 249.078   2
   0   7  -4 3268.72 253.455   6
   0   7  -4 3264.39 136.400   2
   0   7  -4 3150.46 262.997   4
   0   7   5 127.116 92.8521   2
   0   7  -5-23.9059 72.1075   6
   0   7  -5 57.8977 88.1062   4
   0   7  -6 134.519 92.7902   4
   0   7  -6 154.629 91.0780   6
   0   7   6 212.653 112.659   2
   0   7  -7 1463.41 203.636   4
   0   7  -7 1418.58 181.906   6
   0   7   7 1153.88 174.258   2
   0   7   8 10015.8 483.783   2
   0   7  -8 9571.07 474.758   4
   0   7  -8 10098.1 472.012   6
   0   7  -9 19.9084 93.6352   6
   0   7   9-51.7588 97.8106   2
   0   7  -9-1.65496 98.9900   4
   0   7  10 5441.25 385.810   2
   0   7 -10 5154.12 368.612   4
   0   7 -10 5220.31 368.561   6
   0   7 -11 585.306 150.851   4
   0   7  11 303.594 148.707   2
   0   7 -11 247.983 111.508   6
   0   7 -12 356.173 150.689   6
   0   7  12 104.968 130.345   2
   0   7 -12 170.835 111.324   4
   0   8   0 17242.6 490.463   2
   0   8  -1 228.597 72.0677   2
   0   8   1 335.566 108.781   2
   0   8  -2 1883.85 147.643   2
   0   8   2 2106.21 197.200   2
   0   8  -3 192.041 109.471   6
   0   8   3 202.213 102.206   2
   0   8   4 491.429 137.973   2
   0   8  -4 205.966 117.970   4
   0   8  -4 358.271 123.992   6
   0   8   5 215.870 112.494   2
   0   8  -5 160.079 101.182   4
   0   8  -5 250.526 106.804   6
   0   8   6 6856.14 399.954   2
   0   8  -6 7985.37 449.515   4
   0   8  -6 7363.32 411.105   6
   0   8  -7 114.679 97.4011   6
   0   8  -7-22.8659 95.0430   4
   0   8   7 106.543 129.837   2
   0   8  -8 1028.42 171.381   6
   0   8  -8 895.281 172.315   4
   0   8   8 794.451 172.324   2
   0   8  -9 276.592 127.176   4
   0   8  -9 169.924 110.881   6
   0   8   9 102.966 117.932   2
   0   8 -10 288.744 127.909   6
   0   8  10 509.273 184.507   2
   0   9   1 91.7619 84.6942   2
   0   9   2 1966.06 205.741   2
   0   9  -2 1949.76 246.071   6
   0   9  -3 130.114 95.1443   6
   0   9   3-88.5395 101.602   2
   0   9   4 5911.17 369.382   2
   0   9  -4 5810.28 394.229   6
   0   9  -4 5447.49 392.250   4
   0   9   5 117.197 112.057   2
   0   9  -5 245.385 122.803   6
   0   9  -5 165.049 103.637   4
   0   9  -6-23.6857 114.051   6
   0   9   6 5.22697 143.143   2
   0   9   7 83.9712 120.894   2
   0   9  -7 123.602 107.911   6
   0   9   8 922.898 202.352   2
   0  10   4 1153.02 195.414   2
   0  10   5-186.768 157.579   2
  -1  -9   6 776.333 173.380   5
   1  -9  -6 952.616 217.952   7
   1  -9  -6 809.326 166.140   3
   1  -9  -5 105.748 97.1549   3
   1  -9  -5 114.093 142.022   7
   1  -9  -4 1508.58 238.767   3
  -1  -9   4 1185.80 200.992   5
  -1  -9   3 15.4108 91.9495   5
   1  -9  -3-17.2920 113.448   3
  -1  -9   2 258.493 117.328   5
   1  -9  -2 88.2964 105.377   3
  -1  -9   1 304.845 136.386   5
   1  -9  -1-31.0708 116.870   3
   1  -9   0 235.900 104.827   3
   1  -9   0 118.655 108.682   5
  -1  -9   0 124.659 94.3982   5
  -1  -9  -1 157.050 136.983   5
   1  -9   1 205.966 128.487   3
   1  -9   1 50.0606 114.883   5
   1  -9   2 114.974 104.644   5
  -1  -9  -2 280.379 139.290   5
   1  -9   2 74.2737 115.390   3
   1  -9   3 1248.67 200.467   3
   1  -9   3 1200.84 190.728   5
  -1  -9  -3 1486.27 239.776   7
  -1  -9  -3 1123.89 192.680   5
  -1  -9  -4 263.763 160.706   7
   1  -9   4 172.885 137.585   5
  -1  -9  -4 224.807 120.642   5
   1  -9   5 893.289 188.269   5
  -1  -9  -5 975.111 188.360   5
  -1  -9  -5 1047.66 215.462   7
  -1  -9  -6 560.263 162.403   5
   1  -9   6 535.697 137.581   5
  -1  -9  -7 764.445 184.520   5
  -1  -9  -8 128.298 112.341   5
  -1  -9  -9-16.9940 118.799   5
  -1  -8  12 612.866 157.793   5
  -1  -8  11 431.720 149.062   5
   1  -8 -10 1692.37 253.310   7
  -1  -8  10 1272.05 204.305   5
  -1  -8   9 659.441 158.896   5
   1  -8  -9 212.785 115.984   7
   1  -8  -8 522.493 141.585   3
  -1  -8   8 433.018 145.569   5
   1  -8  -8 292.596 136.413   7
   1  -8  -7 302.851 162.277   7
  -1  -8   7 333.633 109.886   5
   1  -8  -7 368.417 115.569   3
   1  -8  -6 1446.81 209.723   3
   1  -8  -6 1328.81 213.958   7
  -1  -8   6 1819.53 226.017   5
   1  -8  -5 712.837 157.755   3
  -1  -8   5 666.422 148.257   5
   1  -8  -4 117.384 94.2802   3
  -1  -8   4 627.377 148.944   5
   1  -8  -3 258.517 117.428   3
  -1  -8   3 180.404 119.335   5
   1  -8  -2 1536.17 211.070   3
  -1  -8   2 1322.41 189.790   5
   1  -8  -1 366.076 116.341   3
  -1  -8   1 107.231 101.700   5
   1  -8   0 80.7833 95.1836   3
  -1  -8   0 247.634 110.853   5
  -1  -8  -1 977.338 178.557   5
   1  -8   1 1100.42 175.180   3
  -1  -8  -2 253.905 119.612   5
   1  -8   2 188.603 103.577   5
   1  -8   2 278.378 104.330   3
   1  -8   3 243.897 98.4777   5
  -1  -8  -3 803.140 172.535   7
   1  -8   3 601.749 145.484   3
  -1  -8  -4 711.058 182.591   7
   1  -8   4 628.207 151.694   5
   1  -8   4 489.782 125.298   3
   1  -8   5 1325.04 201.196   3
   1  -8   5 1246.66 192.151   5
  -1  -8  -5 1168.78 202.446   7
   1  -8   6 304.184 101.169   5
  -1  -8  -6 263.698 131.765   7
   1  -8   7 383.315 115.249   5
  -1  -8  -7 601.529 169.586   7
   1  -8   8 694.831 156.499   5
  -1  -8  -8 316.586 137.652   7
  -1  -8  -9 1340.09 235.879   7
   1  -8   9 1490.39 212.260   5
  -1  -8  -9 955.455 183.555   5
   1  -8  10 225.323 117.894   5
   1  -8  11 1004.01 184.858   5
  -1  -7  14 736.599 161.089   5
  -1  -7  13 28.5044 107.833   5
   1  -7 -13-94.4102 127.818   7
  -1  -7  12 470.698 146.812   5
   1  -7 -12 434.587 142.099   7
   1  -7 -11 1416.55 218.738   7
  -1  -7  11 1616.82 207.110   5
   1  -7 -10 1742.95 229.155   7
  -1  -7  10 1861.02 216.521   5
  -1  -7   9 779.647 149.884   5
   1  -7  -9 870.098 177.129   7
   1  -7  -9 817.179 132.300   3
   1  -7  -8 3765.32 318.090   7
  -1  -7   8 4122.24 306.820   5
   1  -7  -8 4214.23 282.157   3
   1  -7  -7 692.578 155.143   7
   1  -7  -7 909.933 137.185   3
  -1  -7   7 919.079 152.691   5
   1  -7  -6 248.570 144.359   7
   1  -7  -6 18.7804 72.7252   3
  -1  -7   6 126.804 90.3576   5
  -1  -7   5 245.310 73.7202   1
   1  -7  -5 279.049 106.847   3
  -1  -7   5 387.108 124.042   5
  -1  -7   4 788.132 140.001   5
   1  -7  -4 765.687 140.259   3
  -1  -7   4 775.881 108.296   1
  -1  -7   3 454.642 126.840   5
   1  -7  -3 615.444 125.595   3
  -1  -7   3 343.052 87.0013   1
  -1  -7   2 535.605 114.134   1
  -1  -7   2 791.990 142.613   5
   1  -7  -2 690.355 141.873   3
  -1  -7   2 480.773 125.125   3
   1  -7  -1 1189.69 165.199   3
  -1  -7   1 811.217 145.311   5
   1  -7  -1 1262.32 132.061   2
  -1  -7   1 1350.72 179.229   3
   1  -7   0 1215.78 171.843   3
  -1  -7   0 952.881 156.288   3
   1  -7   0 949.310 114.587   2
  -1  -7   0 1195.81 162.264   5
   1  -7   1 820.809 147.533   3
  -1  -7  -1 660.035 134.550   3
   1  -7   2 153.172 91.2743   3
  -1  -7  -2 333.220 92.5001   3
   1  -7   3 840.833 148.220   5
   1  -7   3 859.901 139.308   3
  -1  -7  -3 776.270 135.623   3
  -1  -7  -4 277.758 128.711   7
   1  -7   4 285.346 107.124   5
   1  -7   4 257.451 98.4221   3
   1  -7   5 160.217 96.5211   3
   1  -7   5 227.034 113.402   5
  -1  -7  -5 147.608 122.424   7
  -1  -7  -6 976.570 174.142   7
   1  -7   6 994.162 167.037   3
   1  -7   6 813.646 143.417   5
  -1  -7  -7 4447.83 342.884   7
   1  -7   7 4299.73 309.569   5
   1  -7   8 818.322 149.869   5
  -1  -7  -8 726.515 165.411   7
  -1  -7  -9 1912.98 244.470   7
   1  -7   9 2111.78 228.652   5
  -1  -7 -10 1290.37 209.731   7
   1  -7  10 1894.32 214.166   5
  -1  -7 -11 389.724 151.684   7
   1  -7  11 608.452 143.379   5
   1  -7  12 128.441 92.6189   5
   1  -6 -15 554.468 155.594   7
  -1  -6  14-55.1478 92.3285   5
   1  -6 -14-204.973 129.300   7
  -1  -6  13 964.635 151.478   5
   1  -6 -13 1152.83 191.130   7
  -1  -6  12 837.906 149.947   5
   1  -6 -12 1384.88 218.470   7
  -1  -6  11 715.243 148.826   5
   1  -6 -11 814.883 181.096   7
   1  -6 -10 3650.27 232.631   3
  -1  -6  10 3525.06 266.259   5
   1  -6 -10 4015.25 309.037   7
  -1  -6   9 2420.56 219.495   5
   1  -6  -9 2073.02 228.721   7
   1  -6  -9 2108.76 187.495   3
  -1  -6   8 1150.43 159.856   5
   1  -6  -8 1152.75 143.387   3
   1  -6  -8 1039.07 170.048   7
  -1  -6   7 1971.09 195.977   5
  -1  -6   7 1826.71 104.336   1
   1  -6  -7 1444.60 199.157   7
   1  -6  -7 1800.91 176.374   3
   1  -6  -6 215.884 95.9188   7
  -1  -6   6 464.083 122.816   5
   1  -6  -6 554.283 116.350   3
  -1  -6   6 462.045 68.7298   1
  -1  -6   5 1650.91 176.652   5
   1  -6  -5 1319.09 156.246   3
  -1  -6   4 276.212 95.5959   3
   1  -6  -4 453.258 114.425   3
  -1  -6   4 261.233 94.5863   5
  -1  -6   3 124.130 84.7160   3
   1  -6  -3 24.0753 68.2184   2
  -1  -6   3 9.51155 75.6859   5
   1  -6  -2 2013.57 191.807   3
  -1  -6   2 1947.52 190.553   3
  -1  -6   2 2136.30 198.927   5
  -1  -6   2 2013.31 159.658   1
   1  -6  -2 1886.74 156.480   2
   1  -6  -1 358.143 111.267   3
   1  -6  -1 396.908 83.3216   2
  -1  -6   1 285.176 83.9374   1
  -1  -6   1 435.579 119.457   3
   1  -6   0 353.207 101.457   3
   1  -6   0 280.780 66.4229   2
  -1  -6   0 482.372 105.879   1
  -1  -6   0 366.374 81.7684   2
  -1  -6   0 270.501 93.8338   3
   1  -6   1 1880.13 187.813   3
  -1  -6  -1 1998.81 161.878   2
   1  -6   1 1697.37 121.640   2
  -1  -6  -1 1900.79 182.459   3
   1  -6   2 201.522 92.6143   3
  -1  -6  -2 2.32197 78.7395   3
   1  -6   3 369.912 108.524   3
  -1  -6  -3 297.396 99.7880   3
  -1  -6  -4 1467.94 163.080   3
  -1  -6  -4 1280.69 183.397   7
   1  -6   4 1410.30 166.212   5
   1  -6   4 1669.24 182.268   3
   1  -6   5 575.561 112.294   5
  -1  -6  -5 369.642 111.318   7
  -1  -6  -5 469.610 105.218   3
   1  -6   5 466.816 116.845   3
   1  -6   6 1480.18 168.855   5
   1  -6   6 2061.98 201.313   3
  -1  -6  -6 2061.71 214.310   7
   1  -6   7 1521.94 176.800   3
   1  -6   7 1324.28 162.661   5
  -1  -6  -7 1210.41 186.242   7
  -1  -6  -8 2317.49 243.830   7
   1  -6   8 2041.76 202.097   5
   1  -6   9 3959.15 275.310   5
  -1  -6  -9 4140.98 321.427   7
  -1  -6 -10 734.546 158.779   7
   1  -6  10 595.156 121.605   5
  -1  -6 -11 1021.29 188.535   7
   1  -6  11 1465.50 179.800   5
   1  -6  12 1122.59 159.240   5
  -1  -6 -12 817.247 188.868   7
  -1  -6 -13 87.3761 115.930   7
  -1  -6 -14 771.201 176.973   7
   1  -5 -17 405.973 122.273   7
   1  -5 -16 384.454 148.102   7
   1  -5 -15 909.746 201.042   7
   1  -5 -14 1312.21 213.766   7
  -1  -5  14 1564.08 180.389   5
   1  -5 -13 283.944 137.837   7
  -1  -5  13 495.284 116.376   5
   1  -5 -12 606.530 138.745   7
  -1  -5  12 806.656 135.618   5
   1  -5 -11 2520.18 168.175   3
   1  -5 -11 2374.06 240.757   7
  -1  -5  11 2749.91 222.136   5
   1  -5 -10 951.632 157.606   7
   1  -5 -10 965.136 118.365   3
  -1  -5  10 657.866 119.431   5
   1  -5  -9 1335.56 135.125   3
   1  -5  -9 903.205 153.699   7
  -1  -5   9 1091.34 145.476   5
   1  -5  -8 2517.97 176.037   3
  -1  -5   8 1871.18 57.3494   1
   1  -5  -8 2563.72 233.169   7
  -1  -5   8 2302.04 191.875   5
   1  -5  -7 1358.50 139.873   3
  -1  -5   7 1727.57 169.521   5
   1  -5  -7 1414.05 174.592   7
   1  -5  -6 686.130 137.459   7
   1  -5  -6 730.177 112.377   3
  -1  -5   6 780.808 118.418   5
   1  -5  -5 2572.52 186.079   3
  -1  -5   5 2875.10 201.428   5
  -1  -5   5 2660.83 202.300   3
   1  -5  -4 324.425 97.8589   3
   1  -5  -4 290.336 86.9410   2
  -1  -5   4 166.194 85.1451   3
  -1  -5   4 451.594 97.0622   5
  -1  -5   3 974.957 125.477   5
   1  -5  -3 955.757 114.245   2
   1  -5  -3 954.234 123.061   3
  -1  -5   3 1255.27 139.809   3
  -1  -5   2 39.5327 58.4172   5
   1  -5  -2 29.6556 52.5145   2
  -1  -5   2-56.1961 62.2881   3
   1  -5  -2-10.1549 61.4185   3
  -1  -5   1 697.748 112.382   3
  -1  -5   1 474.634 72.9577   2
   1  -5  -1 532.782 102.420   3
   1  -5  -1 495.978 71.3138   2
  -1  -5   0 456.479 71.8177   2
   1  -5   0 503.268 101.311   3
   1  -5   0 473.910 67.0844   2
  -1  -5   0 705.875 112.803   3
   1  -5   1 1.28047 63.4931   3
   1  -5   1-11.0310 35.7015   2
  -1  -5  -1-2.82513 54.4078   2
  -1  -5  -1 28.6409 64.8798   3
  -1  -5  -1 51.6150 72.5673   1
  -1  -5  -2 792.962 113.246   2
  -1  -5  -2 1084.48 129.178   1
  -1  -5  -2 917.444 121.309   3
   1  -5   2 1104.97 135.949   3
  -1  -5  -3 128.657 64.9855   2
  -1  -5  -3 263.435 75.7072   3
   1  -5   3 115.289 72.0297   3
  -1  -5  -4 2355.40 176.668   3
   1  -5   4 2496.18 192.319   3
  -1  -5  -4 2266.22 201.474   7
   1  -5   5 616.828 114.349   3
   1  -5   5 462.893 93.4316   5
  -1  -5  -5 733.785 142.374   7
  -1  -5  -5 688.742 106.558   3
   1  -5   6 1632.98 168.812   3
   1  -5   6 1590.10 157.388   5
  -1  -5  -6 1426.37 139.020   3
  -1  -5  -6 1484.68 185.692   7
   1  -5   7 2660.83 209.427   3
   1  -5   7 2918.13 207.837   5
  -1  -5  -7 2605.25 225.804   7
   1  -5   8 1214.29 143.411   5
  -1  -5  -8 976.669 158.034   7
   1  -5   8 1117.90 142.061   3
   1  -5   9 645.462 111.969   5
   1  -5   9 727.924 61.2016   1
  -1  -5  -9 727.044 136.894   7
   1  -5  10 2395.22 200.232   5
  -1  -5 -10 2562.85 185.720   5
  -1  -5 -10 2511.25 244.437   7
   1  -5  11 579.190 111.891   5
  -1  -5 -11 746.701 155.842   7
  -1  -5 -12 545.740 152.570   7
   1  -5  12 372.297 101.461   5
   1  -5  13 1670.85 174.249   5
  -1  -5 -13 1616.49 221.050   7
  -1  -5 -14 573.083 152.170   7
  -1  -5 -15 239.503 133.554   7
   1  -4 -18 700.638 158.951   7
   1  -4 -17-46.1660 125.514   7
   1  -4 -16 457.268 143.880   7
   1  -4 -15 1121.03 182.858   7
  -1  -4  14 266.366 85.0177   5
   1  -4 -14 403.237 139.298   7
   1  -4 -13 2486.97 233.497   7
  -1  -4  13 2314.71 192.883   5
   1  -4 -12 1909.71 199.191   7
  -1  -4  12 2257.84 185.030   5
   1  -4 -12 2212.05 169.565   5
   1  -4 -11 882.637 87.8166   3
   1  -4 -11 1143.91 155.384   7
  -1  -4  11 1075.67 131.763   5
   1  -4 -11 863.825 114.305   5
  -1  -4  10 380.025 82.9896   5
   1  -4 -10 236.605 97.0437   7
   1  -4 -10 267.293 69.5287   5
   1  -4 -10 400.011 68.6277   3
   1  -4  -9 388.750 84.9530   5
   1  -4  -9 290.410 68.4878   3
   1  -4  -9 361.814 101.787   7
  -1  -4   9 346.136 87.9265   5
  -1  -4   8 659.717 101.537   5
   1  -4  -8 733.337 126.765   7
   1  -4  -8 665.776 92.0209   3
   1  -4  -7 1512.76 125.867   3
   1  -4  -7 1545.36 162.883   7
  -1  -4   7 1514.27 144.627   5
  -1  -4   6 1456.10 134.319   5
   1  -4  -6 1514.30 126.839   3
   1  -4  -6 1519.19 151.815   2
   1  -4  -6 1224.24 147.531   7
  -1  -4   5 980.011 117.625   3
   1  -4  -5 867.153 114.266   2
  -1  -4   5 979.840 111.067   5
   1  -4  -5 889.960 102.627   3
  -1  -4   4 822.390 109.427   3
   1  -4  -4 1086.24 111.280   3
  -1  -4   4 1060.08 115.928   5
   1  -4  -4 1042.77 108.582   2
   1  -4  -3 440.422 74.3257   2
   1  -4  -3 325.052 67.7870   3
  -1  -4   3 391.307 83.5410   5
  -1  -4   3 487.258 84.6149   3
  -1  -4   2 3.67090 53.2773   3
   1  -4  -2-13.0093 43.5602   2
   1  -4  -2-18.1531 51.9847   3
  -1  -4   1 321.011 77.9636   3
   1  -4  -1 222.107 74.0413   3
   1  -4  -1 314.559 58.0809   2
  -1  -4   1 195.384 45.8667   2
  -1  -4   0 262.794 68.4791   3
   1  -4   0 242.920 47.2095   2
  -1  -4   0 241.649 55.0298   2
   1  -4   0 217.009 67.6235   3
  -1  -4  -1 108.698 60.6100   3
  -1  -4  -1 6.59539 57.5910   1
   1  -4   1-42.3317 52.5037   3
  -1  -4  -1-12.4624 49.3173   2
   1  -4   1-0.60751 31.9976   2
  -1  -4  -2 591.109 84.5231   3
   1  -4   2 452.944 87.1531   3
   1  -4   2 428.412 40.2059   2
  -1  -4  -2 586.487 85.5373   2
  -1  -4  -2 669.755 102.368   1
  -1  -4  -3 1030.93 106.318   3
  -1  -4  -3 1144.50 124.021   1
  -1  -4  -3 1242.89 120.301   2
  -1  -4  -3 1028.68 128.724   7
   1  -4   3 1165.93 121.226   3
  -1  -4  -4 800.787 122.554   7
  -1  -4  -4 959.354 126.328   1
   1  -4   4 823.015 107.301   3
  -1  -4  -4 741.312 94.6123   3
  -1  -4  -4 879.968 116.771   2
  -1  -4  -5 1550.84 153.354   1
   1  -4   5 1455.80 129.377   5
  -1  -4  -5 1570.74 126.161   3
  -1  -4  -5 1688.87 158.130   2
   1  -4   5 1582.68 141.260   3
  -1  -4  -5 1479.45 162.926   7
  -1  -4  -6 1552.23 122.325   3
   1  -4   6 1622.36 138.918   5
   1  -4   6 1519.57 140.351   3
  -1  -4  -6 1346.05 151.117   7
   1  -4   7 616.595 97.7446   5
   1  -4   7 665.070 104.831   3
  -1  -4  -7 556.688 117.643   7
  -1  -4  -8 351.711 105.421   7
   1  -4   8 506.193 90.9622   5
   1  -4   8 391.813 53.3781   1
   1  -4   8 591.254 103.315   3
  -1  -4  -9 467.298 83.9303   5
   1  -4   9 410.735 56.2209   1
  -1  -4  -9 551.849 120.004   7
   1  -4   9 436.076 97.4482   5
   1  -4  10 914.346 114.156   5
  -1  -4 -10 924.434 105.338   5
   1  -4  10 822.523 72.9842   1
  -1  -4 -10 949.576 149.735   7
  -1  -4 -11 2240.12 224.343   7
   1  -4  11 2174.25 112.308   1
   1  -4  11 2150.31 174.797   5
   1  -4  12 2492.78 186.407   5
  -1  -4 -12 2298.14 235.650   7
  -1  -4 -13 382.584 124.388   7
   1  -4  13 128.640 64.8011   5
  -1  -4 -14 1259.31 208.708   7
  -1  -4 -15 602.953 168.668   7
  -1  -4 -16-97.6122 125.575   7
   1  -3 -18 327.687 136.986   7
   1  -3 -17 700.018 172.758   7
   1  -3 -16 362.557 131.851   7
   1  -3 -15 274.655 111.430   7
  -1  -3  14 2948.22 190.294   5
   1  -3 -14 2898.65 240.059   7
  -1  -3  13 2468.21 179.071   5
   1  -3 -13 2611.87 225.056   7
  -1  -3  12 727.725 103.737   5
   1  -3 -12 839.386 132.304   7
   1  -3 -12 632.272 85.0220   5
  -1  -3  11 2433.91 181.896   7
  -1  -3  11 2169.57 163.334   5
   1  -3 -11 2318.08 149.464   5
   1  -3 -11 2168.67 189.453   7
   1  -3 -10 345.575 98.5676   7
  -1  -3  10 447.311 90.5874   5
   1  -3 -10 312.104 52.1001   3
  -1  -3  10 371.851 79.0977   7
   1  -3 -10 413.146 74.8998   5
   1  -3  -9 309.539 93.8991   7
  -1  -3   9 258.672 69.9300   5
   1  -3  -9 468.946 69.4627   5
   1  -3  -9 221.094 50.3771   3
   1  -3  -8 562.868 77.2051   5
   1  -3  -8 607.906 68.8377   3
  -1  -3   8 695.639 112.941   6
   1  -3  -8 812.063 122.382   1
   1  -3  -8 455.298 94.1707   7
  -1  -3   8 676.903 93.7461   5
   1  -3  -7 1640.68 108.225   3
  -1  -3   7 1701.26 132.474   5
  -1  -3   7 1888.47 150.632   6
   1  -3  -7 1875.35 153.689   7
   1  -3  -7 1693.56 150.439   1
   1  -3  -7 1850.11 166.721   2
  -1  -3   6 918.030 100.071   5
   1  -3  -6 1014.39 120.195   7
   1  -3  -6 752.196 102.942   2
  -1  -3   6 979.290 109.808   6
   1  -3  -6 766.498 83.5019   3
  -1  -3   5 5720.86 225.081   5
   1  -3  -5 5782.49 202.720   3
   1  -3  -5 5469.98 238.469   7
   1  -3  -5 6072.83 244.507   2
   1  -3  -4 496.053 71.3719   3
   1  -3  -4 641.920 89.5125   2
  -1  -3   4 684.201 82.9603   5
  -1  -3   4 523.229 75.7655   3
  -1  -3   3 392.765 73.8056   5
   1  -3  -3 452.795 72.1352   2
  -1  -3   3 433.140 69.7014   3
   1  -3  -3 414.135 68.5009   3
  -1  -3   2 855.279 93.9752   3
   1  -3  -2 933.419 85.0397   2
   1  -3  -2 894.818 89.2526   3
  -1  -3   2 904.925 92.0069   5
  -1  -3   1 46.0084 51.7151   3
   1  -3  -1 68.6702 39.3593   2
  -1  -3   1 54.0679 34.0620   2
   1  -3  -1 65.3815 50.3698   3
   1  -3   0 61.5880 31.9071   2
  -1  -3   0 47.0738 42.8322   3
  -1  -3   0 79.7962 39.3627   2
   1  -3   0 58.6316 50.6324   3
  -1  -3  -1 762.055 87.9095   1
  -1  -3  -1 966.214 85.2236   2
  -1  -3  -1 911.390 87.6637   3
   1  -3   1 859.627 54.3887   2
   1  -3   1 1024.59 96.5593   3
   1  -3   2 425.069 29.7632   2
  -1  -3  -2 327.567 71.0303   1
   1  -3   2 466.316 72.7655   3
  -1  -3  -2 455.290 68.6593   2
  -1  -3  -2 373.725 64.2853   3
  -1  -3  -3 478.930 82.0579   1
   1  -3   3 547.542 74.8544   3
  -1  -3  -3 406.205 74.1554   2
  -1  -3  -3 514.002 88.6873   7
  -1  -3  -3 609.378 75.7435   3
  -1  -3  -4 5808.03 194.394   3
  -1  -3  -4 5972.53 245.910   1
  -1  -3  -4 6156.26 244.768   2
  -1  -3  -4 5734.22 250.670   7
   1  -3   4 5626.30 218.467   3
  -1  -3  -5 786.639 77.4140   3
   1  -3   5 1064.81 98.4045   5
  -1  -3  -5 983.770 119.817   7
   1  -3   5 1039.08 105.842   6
  -1  -3  -5 893.920 113.675   1
  -1  -3  -5 979.132 109.235   2
   1  -3   5 904.764 95.4051   3
   1  -3   6 1660.31 126.439   5
  -1  -3  -6 1700.29 151.462   1
  -1  -3  -6 1468.27 147.201   7
   1  -3   6 1623.28 128.750   3
   1  -3   6 1753.56 141.388   6
  -1  -3  -6 1466.25 143.234   2
   1  -3   7 642.169 85.4395   3
  -1  -3  -7 564.822 103.828   1
   1  -3   7 704.201 65.3275   1
   1  -3   7 686.020 87.6436   5
   1  -3   7 731.883 105.521   6
  -1  -3  -7 801.931 120.487   7
   1  -3   8 294.088 67.8997   5
  -1  -3  -8 379.430 99.9963   7
   1  -3   8 315.130 53.0485   1
  -1  -3  -8 310.116 55.2572   5
   1  -3   9 307.818 86.5304   7
   1  -3   9 331.857 55.0733   1
  -1  -3  -9 244.524 100.880   7
  -1  -3  -9 331.399 61.4476   5
   1  -3   9 279.985 70.7550   5
  -1  -3 -10 2342.13 203.438   7
   1  -3  10 2603.12 164.012   5
   1  -3  10 2927.16 140.517   1
  -1  -3 -10 2372.10 128.275   5
   1  -3  11 811.711 86.9460   1
  -1  -3 -11 692.068 68.8670   5
   1  -3  11 920.376 105.141   5
   1  -3  11 812.215 73.7143   2
  -1  -3 -11 768.927 131.670   7
   1  -3  12 2691.04 171.267   5
  -1  -3 -12 3198.88 252.035   7
   1  -3  12 3101.25 142.196   2
   1  -3  13 2747.33 170.498   5
  -1  -3 -13 2881.44 249.327   7
  -1  -3 -14 36.7055 96.3091   7
  -1  -3 -15 332.290 133.844   7
  -1  -3 -16 535.671 150.638   7
  -1  -3 -17 316.618 135.801   7
   1  -2 -17 4.85981 102.356   7
   1  -2 -16 1146.44 168.469   7
  -1  -2  15 3340.00 213.492   2
   1  -2 -15 3158.29 250.689   7
   1  -2 -14 1943.29 193.957   7
  -1  -2  14 2041.47 163.559   2
  -1  -2  14 1899.07 137.847   5
   1  -2 -13 2603.02 136.245   5
   1  -2 -13 3003.15 228.791   7
  -1  -2  13 3324.72 190.919   2
  -1  -2  13 3050.43 169.538   5
  -1  -2  12 1560.34 150.653   7
  -1  -2  12 1867.43 143.170   2
   1  -2 -12 1798.23 167.380   7
  -1  -2  12 1782.12 134.237   5
   1  -2 -12 1543.44 106.913   5
  -1  -2  11 332.961 71.1602   2
   1  -2 -11 203.307 50.7646   5
  -1  -2  11 285.101 69.4576   5
   1  -2 -11 216.436 82.1509   7
  -1  -2  11 354.902 81.0494   7
  -1  -2  10 5470.36 264.138   4
   1  -2 -10 5232.58 248.272   7
   1  -2 -10 5044.68 263.159   1
  -1  -2  10 4714.29 202.779   5
  -1  -2  10 4896.69 221.962   7
   1  -2 -10 4684.93 181.365   5
  -1  -2  10 5201.23 194.436   2
   1  -2  -9 973.148 114.855   7
  -1  -2   9 926.521 96.5935   7
  -1  -2   9 854.889 80.7757   2
   1  -2  -9 903.803 121.838   2
  -1  -2   9 876.909 114.187   4
  -1  -2   9 956.113 94.6489   5
   1  -2  -9 706.176 50.9616   3
  -1  -2   9 972.637 121.024   6
   1  -2  -9 971.325 126.132   1
   1  -2  -9 964.782 87.4722   5
   1  -2  -8 604.255 53.0311   3
   1  -2  -8 769.115 104.979   1
  -1  -2   8 699.112 80.5072   5
  -1  -2   8 832.753 107.699   6
   1  -2  -8 632.013 69.8431   5
  -1  -2   8 601.605 82.2862   7
  -1  -2   8 709.209 67.6835   2
   1  -2  -8 679.861 99.6187   7
   1  -2  -8 607.828 102.460   2
  -1  -2   8 748.060 103.214   4
   1  -2  -7 1666.63 142.668   1
   1  -2  -7 1835.38 89.1909   3
   1  -2  -7 1835.66 134.189   7
  -1  -2   7 1889.27 137.782   4
   1  -2  -7 1669.06 104.618   5
  -1  -2   7 1959.68 93.7801   2
  -1  -2   7 1577.97 112.349   5
   1  -2  -7 1863.06 146.079   2
  -1  -2   7 1778.76 138.131   6
  -1  -2   6 3947.33 187.586   6
   1  -2  -6 4111.39 199.337   2
  -1  -2   6 3580.10 81.7177   1
   1  -2  -6 4454.75 193.757   7
   1  -2  -6 4163.56 158.965   5
   1  -2  -6 4350.79 138.028   3
  -1  -2   6 4391.78 174.014   5
   1  -2  -5 1155.42 102.056   7
  -1  -2   5 965.655 86.6158   5
   1  -2  -5 984.428 98.8985   2
   1  -2  -5 1023.20 74.9765   3
  -1  -2   5 1196.81 99.3120   6
   1  -2  -4 4997.36 158.259   3
  -1  -2   4 5249.70 188.298   6
  -1  -2   4 5127.52 176.085   5
   1  -2  -4 5204.66 190.646   7
   1  -2  -4 5170.53 194.715   2
   1  -2  -3 660.919 76.5863   2
  -1  -2   3 771.614 76.4572   3
   1  -2  -3 707.970 68.1491   3
  -1  -2   3 825.814 77.7082   5
  -1  -2   2 637.937 66.3924   5
   1  -2  -2 664.773 67.6210   2
  -1  -2   2 690.958 72.6020   3
   1  -2  -2 552.779 65.2669   3
  -1  -2   1 752.339 71.5910   3
   1  -2  -1 1042.83 67.2231   2
   1  -2  -1 880.528 77.4044   3
  -1  -2   1 987.901 60.3347   2
  -1  -2   0 892.848 76.0368   3
   1  -2   0 993.912 56.6582   2
  -1  -2   0 984.755 74.2931   1
  -1  -2   0 1000.07 68.5053   2
   1  -2   0 871.005 77.9838   3
  -1  -2  -1 500.654 62.0213   3
   1  -2   1 648.506 71.7112   3
  -1  -2  -1 546.988 60.4386   2
  -1  -2  -1 588.456 74.2921   1
   1  -2   1 643.999 34.6042   2
   1  -2   2 880.136 79.0339   3
  -1  -2  -2 758.312 76.6317   2
  -1  -2  -2 883.725 83.9461   1
  -1  -2  -2 731.886 87.8386   7
  -1  -2  -2 814.919 70.9506   3
   1  -2   3 5098.29 176.228   6
  -1  -2  -3 5190.03 193.000   1
  -1  -2  -3 5074.79 188.053   2
  -1  -2  -3 4913.39 197.600   7
  -1  -2  -3 4833.38 144.562   3
   1  -2   3 5122.57 172.525   3
   1  -2   4 1082.67 86.4591   3
  -1  -2  -4 950.591 67.3283   3
   1  -2   4 950.586 86.0709   6
  -1  -2  -4 967.959 101.841   1
   1  -2   4 1129.78 101.632   4
  -1  -2  -4 1079.42 104.133   2
  -1  -2  -4 936.800 93.5934   7
   1  -2   4 983.163 83.6676   5
   1  -2   5 3934.64 187.757   4
  -1  -2  -5 4047.74 198.811   2
   1  -2   5 3987.18 92.6153   2
  -1  -2  -5 3951.60 193.827   7
   1  -2   5 4133.17 185.934   6
   1  -2   5 4001.44 152.522   5
  -1  -2  -5 4144.31 194.378   1
   1  -2   5 3840.74 155.734   3
   1  -2   6 1834.24 90.8319   1
   1  -2   6 1799.88 134.321   6
  -1  -2  -6 1813.28 144.728   1
   1  -2   6 1659.61 103.751   5
   1  -2   6 1994.19 113.978   3
  -1  -2  -6 2103.02 152.261   7
   1  -2   6 2031.70 82.4634   2
   1  -2   6 1993.73 145.723   4
  -1  -2  -6 1974.37 150.982   2
   1  -2   7 736.413 67.4136   1
  -1  -2  -7 702.766 105.898   1
  -1  -2  -7 766.346 63.1194   5
   1  -2   7 673.511 74.6077   3
   1  -2   7 730.500 63.0384   2
   1  -2   7 765.490 94.2450   7
   1  -2   7 771.747 95.5077   6
  -1  -2  -7 692.584 103.931   2
   1  -2   7 725.958 73.2821   5
  -1  -2  -7 751.839 109.058   7
   1  -2   7 731.235 104.499   4
   1  -2   8 813.050 104.970   7
   1  -2   8 761.630 73.3652   2
  -1  -2  -8 858.284 122.016   2
   1  -2   8 931.690 120.211   6
  -1  -2  -8 785.810 63.1966   5
   1  -2   8 725.596 73.7907   1
   1  -2   8 695.338 75.9457   5
  -1  -2  -8 843.141 111.656   1
   1  -2   8 906.352 118.840   4
  -1  -2  -8 685.798 107.490   7
   1  -2   9 4934.07 179.142   2
   1  -2   9 4405.90 177.490   5
   1  -2   9 4729.04 180.431   1
   1  -2   9 4653.69 237.303   7
  -1  -2  -9 4221.08 133.904   5
  -1  -2  -9 4788.31 255.472   7
  -1  -2 -10 188.529 33.6347   5
   1  -2  10 256.753 85.7700   7
   1  -2  10 144.815 53.6751   1
  -1  -2 -10 140.851 85.0976   7
   1  -2  10 367.980 74.2294   2
   1  -2  10 219.489 55.2160   5
  -1  -2 -11 1301.49 68.6510   5
   1  -2  11 1822.15 117.716   5
   1  -2  11 1852.87 138.339   1
  -1  -2 -11 1849.89 186.274   7
   1  -2  11 2022.13 140.056   2
   1  -2  12 3480.77 189.338   2
   1  -2  12 3502.14 157.649   5
  -1  -2 -12 3347.53 247.681   7
   1  -2  13 2134.84 159.199   2
   1  -2  13 1988.01 118.485   5
  -1  -2 -13 2017.44 201.882   7
   1  -2  14 3066.61 202.002   2
  -1  -2 -14 3388.05 271.842   7
  -1  -2 -15 954.762 169.595   7
  -1  -2 -16-23.2826 118.715   7
  -1  -1  17 1889.61 197.373   2
  -1  -1  16 826.013 138.877   2
   1  -1 -15 1108.84 149.591   7
  -1  -1  15 1280.01 153.152   2
  -1  -1  14 3312.42 225.542   2
   1  -1 -14 3076.46 224.401   7
  -1  -1  14 2205.44 130.704   5
  -1  -1  13 673.732 110.326   2
   1  -1 -13 464.980 60.5086   5
  -1  -1  13 594.742 72.9939   5
   1  -1 -13 643.895 116.002   4
   1  -1 -13 836.144 123.061   7
   1  -1 -12 1270.74 144.903   4
  -1  -1  12 1449.41 143.887   7
  -1  -1  12 1270.74 100.129   5
   1  -1 -12 1276.01 91.9775   5
   1  -1 -12 1638.47 155.781   7
  -1  -1  12 1478.55 142.746   2
   1  -1 -11 4224.72 228.349   1
   1  -1 -11 4000.28 153.418   5
   1  -1 -11 4252.35 228.332   4
  -1  -1  11 4353.81 215.060   2
  -1  -1  11 4285.04 172.725   5
   1  -1 -11 4398.05 225.330   7
  -1  -1  11 4236.62 213.054   7
  -1  -1  10 3536.96 150.623   5
  -1  -1  10 3499.84 185.001   2
   1  -1 -10 3623.84 199.546   1
   1  -1 -10 3962.75 225.644   2
   1  -1 -10 3639.76 193.252   4
  -1  -1  10 3327.29 177.834   7
   1  -1 -10 3531.66 142.098   5
   1  -1 -10 3559.16 197.914   7
  -1  -1  10 3478.55 205.279   4
  -1  -1   9 3374.97 165.998   7
   1  -1  -9 3442.46 198.720   2
   1  -1  -9 3523.83 182.810   4
  -1  -1   9 3329.52 144.536   5
   1  -1  -9 3039.57 181.787   1
   1  -1  -9 3438.28 135.978   5
  -1  -1   9 3318.43 189.282   4
  -1  -1   9 3477.76 205.841   6
  -1  -1   9 3315.70 164.418   2
   1  -1  -9 3446.69 178.901   7
  -1  -1   8 11737.7 279.707   2
  -1  -1   8 11335.5 251.575   5
  -1  -1   8 11323.6 319.423   4
  -1  -1   8 11849.0 285.333   7
   1  -1  -8 11062.5 298.548   7
  -1  -1   8 11332.3 341.865   6
   1  -1  -8 11706.6 340.023   2
   1  -1  -8 11419.9 234.056   5
   1  -1  -8 11467.9 297.666   4
   1  -1  -8 11259.4 312.747   1
   1  -1  -7 87.6268 46.0981   7
   1  -1  -7 133.520 49.7477   4
   1  -1  -7 63.2112 19.3325   3
   1  -1  -7 103.363 52.7420   1
  -1  -1   7 154.473 46.0050   7
  -1  -1   7 72.1759 49.4502   6
  -1  -1   7 95.2029 53.7986   4
   1  -1  -7 132.221 34.9733   5
   1  -1  -7 81.3919 53.6464   2
  -1  -1   7 139.417 44.8290   2
  -1  -1   7 99.6569 40.5830   5
   1  -1  -6 784.405 79.3636   7
   1  -1  -6 736.209 87.1444   2
   1  -1  -6 773.466 60.4559   5
   1  -1  -6 731.625 46.4600   3
  -1  -1   6 1003.90 76.4247   7
  -1  -1   6 797.584 84.9968   4
   1  -1  -6 740.734 80.7492   1
  -1  -1   6 888.419 74.1072   2
  -1  -1   6 892.527 93.1659   6
  -1  -1   6 854.985 70.4817   5
   1  -1  -6 814.961 76.3052   4
  -1  -1   5 2223.17 118.759   4
   1  -1  -5 1916.11 72.4534   3
   1  -1  -5 2043.29 93.9128   5
  -1  -1   5 2157.46 92.5864   2
   1  -1  -5 2345.37 116.815   7
   1  -1  -5 2021.93 122.422   2
  -1  -1   5 2129.65 100.496   5
  -1  -1   5 2197.60 119.951   6
  -1  -1   4 1573.79 93.9387   4
  -1  -1   4 1526.13 95.7387   6
  -1  -1   4 1710.06 71.8795   2
   1  -1  -4 1664.11 92.9710   7
   1  -1  -4 1383.76 65.4824   3
   1  -1  -4 1594.11 102.369   2
   1  -1  -4 1485.65 76.4957   5
  -1  -1   4 1466.16 82.1730   5
   1  -1  -3 35.5362 47.3626   7
  -1  -1   3 61.8722 42.1065   6
  -1  -1   3 118.181 41.1838   5
   1  -1  -3 121.006 46.0180   2
   1  -1  -3 82.3620 38.1424   5
   1  -1  -3 71.0243 28.1920   3
   1  -1  -2 2866.31 101.578   2
  -1  -1   2 2762.38 94.4532   5
   1  -1  -2 2995.12 91.1462   3
   1  -1  -1 72.0237 23.5580   2
   1  -1  -1 107.584 27.1664   3
  -1  -1   1 135.005 29.5927   5
  -1  -1   1 136.877 18.9242   1
  -1  -1   0 144.334 27.8305   1
   1  -1   0 74.1873 26.5411   3
  -1  -1   0 144.218 26.8133   5
  -1  -1   0 74.1458 23.2604   2
  -1  -1  -1 2982.79 106.331   7
   1  -1   1 3037.81 96.0786   3
   1  -1   1 2921.15 97.9716   4
  -1  -1  -1 2943.50 99.0661   2
   1  -1   1 2959.00 87.8513   6
  -1  -1  -1 2920.93 102.053   1
   1  -1   2 83.9938 39.4554   6
   1  -1   2 100.259 34.7326   3
  -1  -1  -2 52.2656 44.6111   7
  -1  -1  -2 80.7320 40.4589   2
   1  -1   2 80.4078 43.5171   4
  -1  -1  -2 128.819 49.6244   1
  -1  -1  -3 1403.40 92.4741   2
   1  -1   3 1504.72 57.1295   2
   1  -1   3 1385.24 74.4720   3
   1  -1   3 1502.83 95.0652   4
  -1  -1  -3 1212.12 91.8307   7
  -1  -1  -3 1290.75 91.5744   1
   1  -1   3 1314.60 67.7615   5
   1  -1   3 1462.42 89.4417   6
  -1  -1  -4 2216.07 119.085   1
  -1  -1  -4 2151.95 121.115   7
   1  -1   4 2212.09 89.2064   3
  -1  -1  -4 2226.03 125.246   2
   1  -1   4 2167.69 89.0391   1
   1  -1   4 1968.59 114.682   6
  -1  -1  -4 2149.03 70.0510   5
   1  -1   4 2216.03 120.788   4
   1  -1   4 2308.63 85.0619   2
   1  -1   4 2222.54 87.2352   5
   1  -1   4 2417.92 119.976   7
  -1  -1  -5 884.055 88.7304   7
  -1  -1  -5 855.332 46.7149   5
   1  -1   5 752.672 81.1420   7
   1  -1   5 830.113 58.7846   5
   1  -1   5 901.516 90.0386   6
   1  -1   5 872.739 65.8636   1
  -1  -1  -5 801.286 81.7783   1
  -1  -1  -5 871.776 91.6129   2
   1  -1   5 895.876 90.5527   4
   1  -1   5 919.849 66.4640   2
  -1  -1  -5 791.827 86.6197   4
   1  -1   5 856.757 60.8273   3
  -1  -1  -6 92.1983 20.0832   5
  -1  -1  -6 159.450 54.8790   4
  -1  -1  -6 142.606 56.4384   7
  -1  -1  -6 121.445 49.6224   1
   1  -1   6 104.509 50.5106   4
  -1  -1  -6 129.220 54.8981   2
   1  -1   6 99.5804 41.6638   2
   1  -1   6 87.1604 29.1030   5
   1  -1   6 66.5028 44.7120   7
   1  -1   6 179.166 47.0847   1
   1  -1   6 138.476 56.4537   6
  -1  -1  -7 11133.7 318.199   4
   1  -1   7 11496.7 266.132   1
   1  -1   7 11057.8 326.365   4
   1  -1   7 11412.8 336.841   6
  -1  -1  -7 11426.8 328.582   2
  -1  -1  -7 11181.3 321.163   7
  -1  -1  -7 10849.3 157.239   5
   1  -1   7 11664.2 311.733   7
   1  -1   7 11539.6 267.255   2
   1  -1   7 11299.0 210.704   5
  -1  -1  -7 11494.9 320.177   1
   1  -1   8 3638.28 194.451   7
  -1  -1  -8 2616.10 79.7262   5
   1  -1   8 3383.98 156.863   1
   1  -1   8 3112.64 190.914   6
  -1  -1  -8 3349.72 193.579   2
  -1  -1  -8 3260.93 186.093   1
  -1  -1  -8 3304.18 185.088   4
  -1  -1  -8 3052.42 182.744   7
   1  -1   8 3361.14 195.233   4
   1  -1   8 3414.76 120.175   5
   1  -1   8 3254.07 163.874   2
   1  -1   9 3875.23 183.830   1
  -1  -1  -9 4154.19 226.497   2
  -1  -1  -9 3947.64 217.076   7
   1  -1   9 3983.92 223.890   4
   1  -1   9 3746.18 128.212   5
   1  -1   9 3726.02 186.033   2
   1  -1   9 4073.69 211.582   7
  -1  -1  -9 3812.56 210.100   1
  -1  -1  -9 3534.53 207.881   4
  -1  -1 -10 3964.90 225.787   1
   1  -1  10 4210.48 202.740   1
   1  -1  10 4410.28 232.555   7
  -1  -1 -10 3900.46 233.176   4
   1  -1  10 4437.87 212.671   2
  -1  -1 -10 4203.95 239.483   7
   1  -1  10 4308.17 137.885   5
  -1  -1 -11 1140.57 138.144   4
   1  -1  11 1204.62 129.373   2
   1  -1  11 1283.01 80.6213   5
  -1  -1 -11 1222.67 142.464   7
  -1  -1 -12 469.895 103.295   4
   1  -1  12 549.618 103.520   2
  -1  -1 -12 508.817 111.318   7
   1  -1  12 488.373 50.9838   5
   1  -1  13 2913.00 209.419   2
  -1  -1 -13 2471.26 216.489   7
   1  -1  14 1471.44 156.615   2
  -1  -1 -14 1214.45 170.342   7
   1  -1  15 725.421 126.679   2
   1   0 -18 3832.57 303.692   4
  -1   0  18 4622.16 333.773   2
   1   0 -17 112.939 82.2218   4
  -1   0  17 312.403 129.000   2
  -1   0  16 4750.63 307.816   2
   1   0 -16 3741.54 275.027   4
  -1   0  15 173.409 95.0347   2
   1   0 -15 231.913 94.7631   4
   1   0 -14 851.321 132.839   4
  -1   0  14 872.401 134.463   2
   1   0 -13 1573.94 102.834   5
   1   0 -13 1603.42 160.571   4
   1   0 -13 1685.38 147.696   1
  -1   0  13 1595.16 164.836   2
  -1   0  13 1325.54 95.6539   5
   1   0 -12 2025.03 154.337   1
  -1   0  12 2193.32 183.152   2
   1   0 -12 1938.42 112.410   5
  -1   0  12 1893.81 110.739   5
  -1   0  12 2019.31 164.415   7
   1   0 -12 2088.52 175.490   4
  -1   0  11 553.986 66.7840   5
   1   0 -11 551.558 104.409   2
  -1   0  11 545.878 108.438   2
   1   0 -11 689.732 95.9815   1
  -1   0  11 573.314 95.8230   7
   1   0 -11 545.236 93.1344   4
   1   0 -11 421.756 58.4183   5
  -1   0  11 501.390 98.3979   4
   1   0 -10 13024.5 372.648   2
   1   0 -10 12077.1 257.068   5
  -1   0  10 12583.6 363.742   4
  -1   0  10 11513.4 249.748   5
   1   0 -10 12131.5 322.504   1
  -1   0  10 12005.2 363.945   2
   1   0 -10 12405.1 339.802   7
   1   0 -10 12521.8 355.404   4
  -1   0  10 12701.5 349.730   7
  -1   0   9 3522.80 189.024   2
   1   0  -9 3505.62 166.396   1
  -1   0   9 3499.58 175.506   7
  -1   0   9 3743.49 211.685   6
   1   0  -9 3329.63 174.918   4
   1   0  -9 3646.51 172.462   7
   1   0  -9 3583.85 136.431   5
   1   0  -9 3458.38 189.108   2
  -1   0   9 3593.39 186.995   4
   1   0  -9 3237.89 81.8243   3
  -1   0   9 3280.99 131.950   5
  -1   0   8 377.667 64.3403   4
   1   0  -8 468.683 68.5927   4
   1   0  -8 497.996 35.0205   3
   1   0  -8 378.524 35.0248   3
   1   0  -8 524.600 68.1816   7
  -1   0   8 495.223 56.8774   5
  -1   0   8 444.389 66.1420   7
  -1   0   8 579.424 88.9417   6
   1   0  -8 416.188 64.9671   1
  -1   0   8 462.382 77.8774   2
   1   0  -8 532.829 80.3581   2
   1   0  -8 476.952 52.2622   5
   1   0  -7 9737.66 270.792   2
   1   0  -7 10296.8 243.788   7
   1   0  -7 10560.3 209.356   5
  -1   0   7 10415.7 249.186   7
   1   0  -7 10024.4 254.128   4
  -1   0   7 9877.45 291.700   6
  -1   0   7 10303.4 205.532   5
  -1   0   7 9795.60 258.887   4
  -1   0   7 9823.53 269.686   2
   1   0  -7 10360.8 244.434   1
   1   0  -6 444.619 58.3603   1
   1   0  -6 363.731 52.8875   7
  -1   0   6 342.343 54.0977   4
   1   0  -6 451.988 64.9034   2
  -1   0   6 418.018 55.5332   7
  -1   0   6 464.045 69.9005   6
  -1   0   6 384.101 67.3027   2
  -1   0   6 388.500 45.0699   5
   1   0  -6 360.584 44.0281   5
   1   0  -6 406.011 57.9199   4
   1   0  -5 116.817 40.2225   4
   1   0  -5 52.2284 42.1190   2
   1   0  -5 59.9416 30.8235   7
   1   0  -5 103.668 31.4470   5
  -1   0   5 36.8595 32.2179   7
  -1   0   5 83.6798 28.5111   5
   1   0  -5 41.2233 34.0263   1
  -1   0   5 145.304 50.2975   6
  -1   0   5 47.0499 35.5782   4
  -1   0   5 142.286 50.1941   2
  -1   0   4 297.075 56.1402   2
   1   0  -4 245.240 51.9025   6
   1   0  -4 271.225 46.3853   1
  -1   0   4 221.117 40.7215   7
   1   0  -4 251.534 37.5159   5
   1   0  -4 252.085 49.8260   2
  -1   0   4 272.580 38.1824   5
  -1   0   4 270.623 48.3974   6
   1   0  -4 314.256 39.5484   7
  -1   0   4 251.779 46.0791   4
   1   0  -4 253.390 41.1409   4
   1   0  -3 182.750 27.9312   5
   1   0  -3 144.210 23.6412   7
   1   0  -3 216.076 29.7155   4
   1   0  -3 162.246 33.4720   6
  -1   0   3 160.238 27.7641   5
  -1   0   3 183.789 30.6653   4
  -1   0   3 165.359 37.8229   2
  -1   0   3 183.410 24.8941   7
  -1   0   3 169.014 34.2594   6
   1   0  -3 104.902 33.9245   2
   1   0  -2 7.57069 16.2447   6
   1   0  -2 2.39767 14.1808   5
  -1   0   2 25.9231 18.3492   6
  -1   0   2 7.15047 13.3647   5
   1   0  -2-3.95071 18.8795   2
   1   0   1 26.5027 20.2726   1
  -1   0  -1 8.25048 17.0870   7
   1   0   1 9.36390 16.0911   4
  -1   0  -1 21.8870 17.6505   4
  -1   0  -1 9.34036 14.7653   2
  -1   0  -2 183.680 33.1166   2
  -1   0  -2 128.716 34.4668   7
   1   0   2 167.123 35.9217   4
   1   0   2 152.620 31.0512   2
   1   0   2 157.926 33.2372   7
  -1   0  -2 171.793 31.5648   1
  -1   0  -2 212.479 38.3687   4
   1   0   2 159.149 32.6631   1
  -1   0  -3 263.947 44.4706   1
   1   0   3 217.217 45.1541   1
  -1   0  -3 185.189 44.9804   7
   1   0   3 210.149 50.4809   6
   1   0   3 295.236 49.4246   2
  -1   0  -3 238.817 44.5688   2
   1   0   3 183.112 48.6659   7
   1   0   3 219.893 52.7663   4
  -1   0  -3 219.605 47.8263   4
  -1   0  -4 114.964 40.7793   1
   1   0   4 59.3025 42.8866   4
   1   0   4 57.7905 40.7018   1
  -1   0  -4 100.299 42.6137   2
  -1   0  -4 102.282 44.9197   7
  -1   0  -4 73.8569 40.0277   4
   1   0   4 73.8122 44.7484   6
   1   0   4 103.051 46.7395   2
   1   0   4 120.572 45.3255   7
   1   0   5 409.740 62.3291   2
   1   0   5 447.954 68.0557   6
   1   0   5 516.596 69.2931   7
  -1   0  -5 348.994 57.2943   2
  -1   0  -5 404.975 60.5255   7
   1   0   5 338.410 26.3746   5
  -1   0  -5 472.253 62.6796   1
  -1   0  -5 472.539 65.6951   4
   1   0   5 386.261 61.9046   1
   1   0   5 403.055 66.7721   4
   1   0   6 10542.0 299.267   6
  -1   0  -6 10347.9 262.713   2
  -1   0  -6 10071.3 278.325   4
   1   0   6 8906.82 130.514   5
   1   0   6 10280.7 259.872   1
   1   0   6 10182.1 271.032   7
   1   0   6 9994.74 260.103   2
  -1   0  -6 10260.7 252.912   1
  -1   0  -6 10536.6 276.900   7
   1   0   6 10325.7 285.006   4
   1   0   7 388.051 72.1877   2
  -1   0  -7 473.898 78.7114   7
  -1   0  -7 332.729 30.0229   5
   1   0   7 401.846 32.9226   5
   1   0   7 474.920 79.1853   7
   1   0   7 418.886 69.5451   1
  -1   0  -7 465.963 68.2568   1
  -1   0  -7 400.661 68.6850   2
   1   0   7 528.767 75.0208   4
  -1   0  -7 474.491 75.8166   4
   1   0   7 487.425 81.5002   6
  -1   0  -8 3638.47 191.392   7
   1   0   8 3450.77 188.623   7
  -1   0  -8 3519.21 193.144   4
   1   0   8 3782.71 186.863   1
  -1   0  -8 3641.31 183.116   2
   1   0   8 3378.66 198.362   6
   1   0   8 2765.15 84.2294   5
   1   0   8 3677.62 189.572   2
  -1   0  -8 3437.50 171.482   1
   1   0   8 3443.92 191.866   4
  -1   0  -9 12023.6 370.360   4
  -1   0  -9 12640.1 352.084   2
   1   0   9 12450.4 383.557   4
  -1   0  -9 11822.0 360.955   7
   1   0   9 12335.7 355.645   2
  -1   0  -9 12349.4 340.512   1
   1   0   9 11896.0 361.670   7
   1   0  10 410.486 90.8464   2
  -1   0 -10 631.861 104.371   2
   1   0  10 549.439 103.788   7
  -1   0 -10 584.740 105.380   4
  -1   0 -10 624.636 101.940   1
  -1   0 -11 2118.30 166.962   1
  -1   0 -11 2388.35 179.596   2
  -1   0 -11 2070.79 179.934   4
   1   0  11 2213.79 184.672   2
   1   0  12 1946.72 177.532   2
  -1   0 -12 1582.33 169.593   4
   1   0  13 1047.30 145.655   2
  -1   0 -13 773.385 134.283   4
  -1   0 -14 73.1659 86.7463   4
   1   0  14 61.1257 92.1924   2
   1   0  15 4305.16 293.490   2
  -1   0 -15 4082.89 298.123   4
  -1   0 -16 2.44328 87.8408   4
   1   0  16 27.5382 101.937   2
  -1   0 -17 4284.68 332.853   4
   1   0  17 4502.90 320.234   2
  -1   1  19 350.418 159.519   2
   1   1 -19 41.9384 126.874   4
   1   1 -18 279.685 107.281   4
  -1   1  18 372.400 143.227   2
   1   1 -17 1631.69 194.729   4
  -1   1  17 2640.92 256.573   2
  -1   1  16 800.445 158.324   2
   1   1 -16 661.777 128.928   4
  -1   1  15 1175.97 179.693   2
   1   1 -15 1105.44 151.775   4
  -1   1  14 2632.95 228.411   2
   1   1 -14 2531.25 214.289   4
   1   1 -13 492.155 38.0131   3
   1   1 -13 686.490 109.133   2
   1   1 -13 599.586 111.420   4
  -1   1  13 560.843 117.294   2
   1   1 -12 1255.22 99.3220   5
   1   1 -12 1221.43 129.643   2
   1   1 -12 1016.27 133.429   4
  -1   1  12 1114.08 149.310   2
   1   1 -12 1288.08 76.1225   3
  -1   1  12 1208.65 144.452   7
   1   1 -11 4130.61 172.158   5
  -1   1  11 3956.36 229.820   7
  -1   1  11 4223.36 251.107   2
   1   1 -11 3873.28 132.443   3
  -1   1  11 4003.15 221.322   4
   1   1 -11 4052.33 226.028   4
   1   1 -11 3987.42 204.036   2
  -1   1  10 3974.06 229.234   2
   1   1 -10 3586.49 200.320   4
  -1   1  10 3500.96 201.328   7
   1   1 -10 3486.58 127.822   3
  -1   1  10 3773.42 204.444   4
   1   1 -10 3535.08 157.002   1
   1   1 -10 3905.81 188.606   2
   1   1 -10 3878.20 159.633   5
  -1   1   9 3207.28 179.741   7
   1   1  -9 2933.03 137.809   5
   1   1  -9 3353.90 139.088   1
  -1   1   9 3348.80 181.326   4
  -1   1   9 3158.64 197.379   2
   1   1  -9 3155.58 178.994   4
   1   1  -9 3335.88 202.590   6
   1   1  -9 3095.67 161.974   2
   1   1  -9 3396.33 125.581   3
  -1   1   9 3638.17 212.083   6
  -1   1   8 11404.8 299.307   4
  -1   1   8 11574.4 308.827   7
  -1   1   8 11501.7 339.924   2
   1   1  -8 10938.8 221.550   3
   1   1  -8 11050.0 336.948   6
   1   1  -8 11254.5 229.491   1
   1   1  -8 11187.9 308.919   4
   1   1  -8 11161.4 251.434   5
   1   1  -8 10894.3 273.766   2
  -1   1   8 10918.5 335.193   6
   1   1  -7 44.0564 43.4940   6
   1   1  -7 173.304 39.5366   3
   1   1  -7 133.096 39.0972   5
   1   1  -7 57.9322 38.4528   2
   1   1  -7 86.7660 45.9274   4
  -1   1   7 128.915 49.6836   7
  -1   1   7 145.899 66.6600   2
   1   1  -7 159.081 34.0750   1
  -1   1   7 191.082 49.8709   4
   1   1  -6 843.345 70.8990   5
  -1   1   6 816.070 75.2535   4
   1   1  -6 917.346 74.7474   2
   1   1  -6 1019.69 96.5728   6
  -1   1   6 866.434 91.6840   2
  -1   1   6 941.928 86.1612   7
   1   1  -6 1046.60 58.3594   1
   1   1  -6 797.509 65.7986   3
   1   1  -6 843.625 82.8933   4
   1   1  -5 2335.78 117.533   4
   1   1  -5 2276.50 106.444   5
  -1   1   5 2318.27 121.788   7
   1   1  -5 2285.81 97.6649   3
   1   1  -5 2420.03 100.993   2
   1   1  -5 2518.40 72.6769   1
   1   1  -5 2300.86 123.753   6
  -1   1   5 2395.16 132.632   2
  -1   1   5 2434.33 77.9845   3
  -1   1   5 2436.90 108.581   4
   1   1  -4 1478.32 93.3639   6
   1   1  -4 1520.24 70.6360   2
   1   1  -4 1461.36 78.8488   3
   1   1  -4 1445.45 86.0511   4
  -1   1   4 1403.00 97.7783   2
  -1   1   4 1464.72 78.5832   4
  -1   1   4 1495.49 64.4155   3
   1   1  -4 1350.60 80.2225   5
  -1   1   4 1331.36 85.5977   7
   1   1  -3 62.7646 39.4417   4
   1   1  -3 65.2872 38.6985   6
  -1   1   3 71.1590 48.2684   2
   1   1  -3 97.7147 29.4883   2
   1   1  -3 103.941 38.2088   5
  -1   1   3 79.3062 32.0838   3
   1   1  -3 76.9257 37.7544   3
  -1   1   2 2947.64 102.423   2
   1   1  -2 2959.84 96.2099   3
   1   1  -2 2871.93 95.2260   5
  -1   1   2 2899.57 89.2840   3
   1   1  -2 2906.19 98.9096   6
   1   1  -1 142.046 30.0399   3
  -1   1   1-6.18799 20.9435   3
  -1   1   1 127.610 28.0175   2
   1   1  -1 45.6259 21.1316   5
   1   1   0 22.6691 19.6951   3
   1   1   0 145.560 26.5231   2
   1   1   0 80.4383 24.3773   1
  -1   1   0 101.001 25.2986   3
  -1   1  -1 2993.98 95.3762   3
   1   1   1 2835.73 105.956   7
   1   1   1 3001.12 99.7908   2
   1   1   1 2819.87 82.9944   3
  -1   1  -1 3260.29 102.720   4
   1   1   1 2892.00 100.988   1
  -1   1  -1 3002.13 89.0571   6
   1   1   2 61.2204 44.8730   1
   1   1   2 30.3418 44.3368   2
  -1   1  -2 112.984 41.6309   6
  -1   1  -2 117.042 44.2921   4
   1   1   2 138.258 54.3985   7
  -1   1  -2 116.610 36.6100   3
   1   1   2 49.9985 24.1729   3
   1   1   3 1176.50 51.7509   3
  -1   1  -3 1447.79 74.9378   3
   1   1   3 1298.69 95.0747   2
  -1   1  -3 1557.12 95.0600   4
   1   1   3 1411.59 98.5955   7
   1   1   3 1493.80 99.0768   1
  -1   1  -3 1618.12 93.9187   6
  -1   1  -3 1626.93 57.6305   2
   1   1   3 1420.11 91.9965   4
   1   1   4 2026.99 118.213   2
  -1   1  -4 1907.29 86.0102   3
  -1   1  -4 1851.96 111.221   4
  -1   1  -4 2087.97 79.0229   2
  -1   1  -4 2205.03 118.487   6
   1   1   4 1833.44 117.028   1
   1   1   4 2072.71 122.900   7
   1   1   4 2001.67 115.331   4
  -1   1  -5 733.713 60.5279   2
   1   1   5 742.664 83.2688   7
  -1   1  -5 708.191 56.5690   3
   1   1   5 811.161 91.5040   1
   1   1   5 638.761 79.5230   2
   1   1   5 726.383 80.7412   4
  -1   1  -5 819.050 83.9059   4
  -1   1  -5 810.783 83.3113   6
   1   1   6 82.6730 64.3190   1
  -1   1  -6 132.207 33.7452   3
  -1   1  -6 141.132 39.7559   2
   1   1   6 127.660 51.6521   4
   1   1   6 74.8558 51.6957   2
  -1   1  -6 139.337 53.4561   4
  -1   1  -6 96.9436 55.9887   6
   1   1   6 87.0112 51.1784   7
  -1   1  -7 10988.4 202.727   3
  -1   1  -7 11387.1 260.439   2
   1   1   7 10784.6 318.355   7
  -1   1  -7 11362.1 327.015   4
   1   1   7 11322.8 327.692   2
   1   1   7 11019.6 318.856   4
  -1   1  -8 3153.05 109.885   3
   1   1   8 3205.38 186.830   4
   1   1   8 3520.58 202.397   2
   1   1   8 3307.06 203.157   6
  -1   1  -8 3263.19 154.461   2
   1   1   8 3367.56 194.686   7
  -1   1  -8 3277.30 191.149   4
   1   1   9 3710.49 215.025   4
   1   1   9 3686.11 217.849   2
  -1   1  -9 3397.32 110.489   3
   1   1   9 3027.17 200.058   7
  -1   1  -9 3577.87 171.349   2
  -1   1  -9 3592.56 211.490   4
  -1   1 -10 4139.62 200.475   2
   1   1  10 4143.45 241.122   7
  -1   1 -10 3790.56 108.785   3
  -1   1 -10 4273.58 240.954   4
   1   1  10 4069.68 240.070   2
   1   1  11 1430.19 163.065   2
  -1   1 -11 1236.25 152.176   4
  -1   1 -11 1492.04 134.638   2
  -1   1 -12 774.604 109.209   2
   1   1  12 596.232 121.583   2
  -1   1 -12 680.088 133.383   4
  -1   1 -13 3046.85 239.541   4
   1   1  13 3254.58 251.707   2
   1   1  14 1233.44 182.459   2
  -1   1 -14 1075.49 163.847   4
   1   1  15 756.210 149.256   2
  -1   1 -15 988.633 158.053   4
   1   1  16 1882.61 235.328   2
  -1   1 -16 1982.16 227.236   4
  -1   1 -17 666.349 152.201   4
   1   1  17 830.027 178.871   2
   1   1  18 239.872 126.732   2
  -1   1 -18 583.489 164.978   4
  -1   2  19 325.698 147.021   2
   1   2 -19 141.146 123.479   4
  -1   2  18 291.798 126.650   2
   1   2 -18 123.625 93.3423   4
   1   2 -17 201.836 111.755   4
  -1   2  17 92.7262 113.010   2
  -1   2  16 1361.75 201.847   2
   1   2 -16 795.427 145.730   4
   1   2 -15 2834.98 247.114   4
  -1   2  15 3213.82 273.628   2
  -1   2  14 2182.84 224.426   2
   1   2 -14 1912.14 197.711   4
   1   2 -13 3381.95 192.013   2
   1   2 -13 3249.82 235.122   4
   1   2 -13 3293.20 154.841   3
  -1   2  13 3411.53 266.719   2
   1   2 -12 1779.32 172.287   4
   1   2 -12 1323.56 164.802   6
   1   2 -12 1650.33 131.728   2
  -1   2  12 1593.60 175.865   2
   1   2 -12 1606.47 114.197   3
  -1   2  11 250.724 76.8838   4
   1   2 -11 263.151 57.8847   3
  -1   2  11 53.2584 85.8222   7
   1   2 -11 290.790 66.7780   2
  -1   2  11 381.011 111.865   2
   1   2 -11 214.965 86.5018   6
   1   2 -11 265.745 81.2511   4
   1   2 -10 4463.70 238.968   4
   1   2 -10 4175.69 244.529   6
   1   2 -10 4799.46 189.650   3
   1   2 -10 4383.91 184.243   2
  -1   2  10 4701.68 264.980   2
  -1   2  10 4397.65 224.557   4
  -1   2  10 4259.73 247.216   7
   1   2  -9 851.984 80.4379   2
  -1   2   9 966.159 132.985   2
   1   2  -9 854.897 106.469   4
   1   2  -9 788.007 111.689   6
  -1   2   9 924.641 104.883   4
   1   2  -9 793.377 85.0468   3
  -1   2   9 985.249 125.595   7
   1   2  -8 803.081 87.7100   3
  -1   2   8 735.977 109.467   2
   1   2  -8 743.441 70.0599   2
  -1   2   8 656.977 54.0007   3
  -1   2   8 874.719 96.3527   4
   1   2  -8 713.981 94.6319   4
   1   2  -8 800.179 104.346   6
  -1   2   7 1919.95 123.773   4
   1   2  -7 1941.01 142.146   6
   1   2  -7 1950.04 117.832   3
  -1   2   7 1838.40 149.477   2
   1   2  -7 1974.65 134.051   4
   1   2  -7 2090.17 99.6568   2
  -1   2   7 1948.15 90.8226   3
   1   2  -6 4008.67 164.818   3
   1   2  -6 3891.63 118.971   2
   1   2  -6 4000.70 187.489   6
   1   2  -6 4055.41 179.568   4
  -1   2   6 4146.06 168.136   4
  -1   2   6 3908.13 131.638   3
  -1   2   6 3765.71 192.267   2
   1   2  -5 1089.97 59.6433   2
   1   2  -5 947.266 87.6229   4
   1   2  -5 1133.77 91.7818   3
   1   2  -5 1085.86 97.5667   6
  -1   2   5 1027.87 103.300   2
  -1   2   5 1096.78 74.2234   3
  -1   2   4 4955.37 190.556   2
   1   2  -4 5017.66 172.488   3
   1   2  -4 5120.84 107.079   2
   1   2  -4 4938.91 178.693   6
   1   2  -4 5280.67 183.619   4
  -1   2   4 4910.18 152.365   3
  -1   2   3 827.222 71.8585   3
  -1   2   3 693.766 76.6601   2
   1   2  -3 831.309 75.9947   3
   1   2  -3 743.898 75.6290   6
  -1   2   2 785.568 73.6774   3
  -1   2   2 714.887 72.0615   2
   1   2  -2 642.439 69.0575   3
   1   2  -2 714.977 46.7734   2
   1   2  -1 941.232 60.8255   2
   1   2  -1 910.328 79.7880   3
  -1   2   1 926.287 68.6595   2
  -1   2   1 981.777 79.6683   3
  -1   2   0 1080.58 84.2225   3
  -1   2   0 989.880 56.2820   2
   1   2   0 1064.95 72.6693   2
   1   2   0 968.087 80.6094   3
  -1   2  -1 718.429 72.5387   3
   1   2   1 579.164 63.4884   2
   1   2   1 510.314 62.8563   3
   1   2   2 688.686 74.2867   2
  -1   2  -2 816.754 83.0487   4
   1   2   2 894.613 70.8252   3
  -1   2  -2 714.047 70.9226   6
  -1   2  -2 741.462 73.1804   3
  -1   2  -3 5375.90 177.437   3
   1   2   3 5147.74 148.643   3
  -1   2  -3 5556.30 182.375   6
  -1   2  -3 5054.66 186.452   4
   1   2   3 5202.92 191.032   2
  -1   2  -4 1047.43 91.7214   6
   1   2   4 1095.77 71.6870   3
  -1   2  -4 1153.63 100.816   4
   1   2   4 848.381 100.609   7
  -1   2  -4 1134.34 88.6197   3
   1   2   4 949.644 100.453   2
  -1   2  -5 4212.94 164.155   3
   1   2   5 4510.34 194.127   4
  -1   2  -5 4113.78 90.5645   2
   1   2   5 4410.64 201.756   2
  -1   2  -5 4314.82 188.647   6
   1   2   5 4190.11 201.223   7
   1   2   5 4099.82 124.006   3
  -1   2  -5 4365.13 195.967   4
  -1   2  -6 1761.75 133.186   6
   1   2   6 1671.85 137.401   7
   1   2   6 1602.36 76.1178   3
  -1   2  -6 1804.62 111.705   3
   1   2   6 1802.91 134.996   4
   1   2   6 1708.90 139.052   2
  -1   2  -6 1819.80 135.969   4
  -1   2  -6 1854.13 75.9024   2
  -1   2  -7 728.048 58.3978   2
  -1   2  -7 709.484 100.425   4
   1   2   7 544.762 41.5366   3
   1   2   7 708.671 96.7135   4
  -1   2  -7 651.038 95.0796   6
   1   2   7 599.310 101.078   7
   1   2   7 639.470 107.283   2
  -1   2  -7 705.674 76.4937   3
  -1   2  -8 948.502 122.697   6
  -1   2  -8 889.796 72.6102   2
   1   2   8 829.276 115.124   7
   1   2   8 839.121 119.181   2
  -1   2  -8 976.747 90.8530   3
   1   2   8 973.081 116.998   4
  -1   2  -8 776.956 106.167   4
   1   2   9 4974.03 256.007   4
   1   2   9 5044.79 270.435   2
  -1   2  -9 4474.65 253.821   6
  -1   2  -9 5030.13 183.330   3
  -1   2  -9 4734.65 169.435   2
   1   2   9 4385.15 261.644   7
  -1   2  -9 4674.52 254.710   4
   1   2  10 177.363 91.9767   2
  -1   2 -10 362.030 66.0091   2
  -1   2 -10 329.144 98.8189   4
  -1   2 -10 183.083 83.6588   6
  -1   2 -10 257.371 59.0057   3
   1   2  11 2130.61 202.432   2
  -1   2 -11 2166.81 194.269   4
  -1   2 -11 2006.07 134.072   2
  -1   2 -11 2043.57 118.093   3
   1   2  12 3111.79 249.496   2
  -1   2 -12 2955.29 231.777   4
  -1   2 -12 3307.53 141.967   3
  -1   2 -12 3381.44 179.418   2
   1   2  13 2366.98 236.556   2
  -1   2 -13 2025.24 205.542   4
   1   2  14 3475.70 281.011   2
  -1   2 -14 3027.35 261.378   4
   1   2  15 1267.46 193.207   2
  -1   2 -15 1361.37 191.897   4
   1   2  16 326.727 126.663   2
  -1   2 -16 305.673 105.968   4
  -1   2 -17-44.7187 107.028   4
   1   2  17 167.033 118.207   2
   1   2  18 61.1710 126.048   2
   1   3 -18 361.785 145.322   4
   1   3 -17 565.421 149.071   4
  -1   3  17 1045.96 203.678   2
   1   3 -16 523.558 142.311   4
  -1   3  16 156.380 110.861   2
  -1   3  15 284.195 123.026   2
   1   3 -15 118.203 89.0805   4
   1   3 -14 3088.80 254.828   4
   1   3 -14 2974.42 269.181   6
  -1   3  14 3113.62 276.832   2
   1   3 -13 2706.04 229.918   4
   1   3 -13 2677.78 173.233   3
  -1   3  13 2784.61 252.017   2
   1   3 -13 2712.63 243.685   6
   1   3 -12 965.753 86.9226   2
   1   3 -12 743.379 124.608   4
   1   3 -12 824.849 100.142   3
  -1   3  12 1051.35 164.270   2
   1   3 -12 1076.19 155.832   6
   1   3 -11 2521.59 168.602   3
   1   3 -11 2538.22 201.566   4
  -1   3  11 2594.07 225.903   2
   1   3 -11 2595.08 219.826   6
   1   3 -11 2522.70 127.387   2
   1   3 -10 369.368 82.2729   3
  -1   3  10 353.762 119.654   2
   1   3 -10 340.142 56.3000   2
   1   3 -10 239.662 75.0309   4
  -1   3  10 340.576 51.7756   3
   1   3 -10 354.570 98.8437   6
  -1   3  10 128.598 67.0810   4
   1   3  -9 265.278 90.3025   6
  -1   3   9 235.514 75.7415   4
  -1   3   9 327.107 53.7024   3
  -1   3   9 287.350 109.146   2
   1   3  -9 277.449 45.0798   2
   1   3  -9 306.958 88.6042   4
   1   3  -9 373.132 80.1475   3
   1   3  -8 591.672 97.5175   4
   1   3  -8 550.624 51.3309   2
   1   3  -8 524.130 93.3068   6
  -1   3   8 671.207 70.8345   3
   1   3  -8 537.933 84.9823   3
  -1   3   8 641.597 95.1916   4
  -1   3   8 597.274 105.506   2
   1   3  -7 1467.05 135.179   4
   1   3  -7 1568.96 139.240   6
  -1   3   7 1664.87 110.351   3
   1   3  -7 1455.04 70.2068   2
  -1   3   7 1629.20 151.731   2
   1   3  -7 1663.56 128.938   3
  -1   3   6 755.343 103.072   2
  -1   3   6 804.203 79.9957   3
   1   3  -6 887.374 52.7547   2
   1   3  -6 1029.47 112.702   6
   1   3  -6 1152.63 110.652   3
   1   3  -6 1087.57 112.498   4
  -1   3   5 6121.05 245.797   2
   1   3  -5 6115.36 239.348   4
   1   3  -5 5918.99 120.393   2
   1   3  -5 6221.44 233.481   3
   1   3  -5 6193.04 236.379   6
  -1   3   5 6137.35 205.558   3
   1   3  -4 684.593 91.7449   3
   1   3  -4 518.040 42.3259   2
  -1   3   4 558.899 74.4050   3
   1   3  -4 466.632 72.9066   6
  -1   3   4 487.291 78.8847   2
   1   3  -3 478.317 71.2190   6
  -1   3   3 319.872 65.2906   2
  -1   3   3 385.108 61.2749   3
   1   3  -3 468.604 70.7341   3
   1   3  -3 477.464 44.1337   2
   1   3  -2 911.302 63.0603   2
   1   3  -2 926.641 96.9403   3
  -1   3   2 990.578 86.9884   2
  -1   3   2 917.082 87.8175   3
  -1   3   1 47.3601 38.5831   2
  -1   3   1 136.846 56.0164   3
   1   3  -1 104.171 54.3212   3
   1   3  -1 84.9558 40.9945   2
  -1   3   0 98.8335 56.3118   3
  -1   3   0 25.6142 34.1632   2
   1   3   0 89.4767 41.4872   2
   1   3   0 68.5613 49.9130   3
  -1   3  -1 835.902 88.2668   3
  -1   3  -1 910.580 57.5657   2
   1   3   1 861.211 88.1969   3
   1   3   1 887.424 84.8283   2
  -1   3  -2 452.046 33.1901   2
   1   3   2 391.869 63.8148   3
  -1   3  -2 408.167 63.2274   6
  -1   3  -2 389.946 71.5351   3
   1   3   2 497.007 75.6180   2
   1   3   3 516.015 81.0132   2
  -1   3  -3 601.785 74.1539   6
  -1   3  -3 696.795 90.1595   4
   1   3   3 568.449 72.2488   3
  -1   3  -3 626.412 83.9532   3
  -1   3  -4 5772.76 221.463   6
   1   3   4 5616.78 233.648   2
  -1   3  -4 5575.65 233.779   4
  -1   3  -4 5836.51 223.787   3
   1   3   4 5934.80 199.947   3
  -1   3  -5 863.625 97.7363   3
   1   3   5 716.860 103.389   2
  -1   3  -5 879.384 99.9861   6
   1   3   5 785.280 76.9244   3
  -1   3  -5 974.746 108.222   4
   1   3   6 1751.51 155.707   2
  -1   3  -6 1783.00 142.805   6
  -1   3  -6 1654.20 144.879   4
  -1   3  -6 1768.42 132.536   3
   1   3   6 1653.93 105.083   3
   1   3   7 667.452 118.631   2
   1   3   7 735.918 71.6536   3
   1   3   7 611.007 101.240   4
  -1   3  -7 757.515 104.146   6
  -1   3  -7 826.048 110.951   4
  -1   3  -7 783.968 93.4912   3
   1   3   8 297.573 89.1237   2
   1   3   8 393.396 88.4254   4
  -1   3  -8 306.918 86.6361   4
  -1   3  -8 220.809 64.3728   3
  -1   3  -8 258.796 29.0414   2
  -1   3  -8 240.605 79.3317   6
   1   3   8 294.235 47.5296   3
  -1   3  -9 384.177 96.3946   4
   1   3   9 250.695 99.7398   2
  -1   3  -9 510.130 89.6991   3
   1   3   9 363.039 45.4412   3
  -1   3  -9 172.852 69.8083   6
  -1   3  -9 470.805 44.7279   2
   1   3  10 1754.55 71.0744   3
  -1   3 -10 2188.19 201.535   6
  -1   3 -10 2382.33 157.825   3
  -1   3 -10 2323.04 102.789   2
   1   3  10 1933.90 200.379   2
  -1   3 -10 2485.54 212.484   4
  -1   3 -11 695.659 65.0707   2
  -1   3 -11 655.192 127.445   6
  -1   3 -11 803.653 137.886   4
  -1   3 -11 778.483 97.7814   3
   1   3  11 884.245 148.915   2
   1   3  12 2851.18 253.196   2
  -1   3 -12 2934.17 242.857   4
  -1   3 -12 2548.64 235.019   6
  -1   3 -12 3057.29 179.722   3
   1   3  13 2750.62 264.464   2
  -1   3 -13 2911.77 253.158   4
   1   3  14 230.241 127.092   2
  -1   3 -14 119.296 83.1067   4
   1   3  15 355.463 139.951   2
  -1   3 -15 400.052 130.880   4
  -1   3 -16 1008.44 184.593   4
   1   3  16 527.422 147.594   2
   1   3  17 270.651 148.732   2
   1   4 -17 312.871 125.505   4
   1   4 -16 475.381 136.115   4
  -1   4  16 593.025 168.402   2
   1   4 -15 1381.93 204.982   6
   1   4 -15 1363.73 192.942   4
  -1   4  15 1585.02 225.966   2
   1   4 -14 293.546 119.430   4
  -1   4  14 285.154 141.703   2
   1   4 -14 252.192 106.255   6
  -1   4  13 2436.64 256.902   2
   1   4 -13 2102.70 220.923   6
   1   4 -13 2466.95 231.753   4
  -1   4  12 2480.63 242.200   2
   1   4 -12 2355.17 222.720   4
   1   4 -12 2299.45 220.627   6
   1   4 -11 756.847 49.4368   2
  -1   4  11 946.718 88.5498   3
   1   4 -11 971.760 146.812   6
  -1   4  11 956.498 165.853   2
   1   4 -11 1051.49 146.387   4
   1   4 -10 650.191 116.826   6
   1   4 -10 501.277 108.832   4
   1   4 -10 453.877 101.173   3
  -1   4  10 518.257 78.5366   3
   1   4 -10 327.850 31.9516   2
  -1   4  10 566.436 132.561   2
   1   4  -9 576.962 121.911   4
   1   4  -9 237.657 24.6658   2
   1   4  -9 393.468 87.6041   3
  -1   4   9 314.932 114.573   2
   1   4  -9 446.056 100.775   6
  -1   4   9 447.050 74.4514   3
  -1   4   9 519.677 104.911   4
   1   4  -8 298.642 26.7747   2
   1   4  -8 651.298 114.097   6
   1   4  -8 531.989 98.2695   3
   1   4  -8 514.103 102.569   4
  -1   4   8 512.702 80.6335   3
  -1   4   8 534.092 115.282   2
   1   4  -7 1615.02 152.924   6
  -1   4   7 1467.84 154.799   2
   1   4  -7 1108.25 48.6404   2
   1   4  -7 1591.31 145.874   3
  -1   4   7 1656.39 126.608   3
   1   4  -7 1608.64 154.603   4
   1   4  -6 1520.95 149.041   4
   1   4  -6 1747.49 150.466   6
  -1   4   6 1656.52 129.982   3
   1   4  -6 1800.41 148.334   3
   1   4  -6 1516.85 60.9330   2
  -1   4   6 1324.54 142.487   2
   1   4  -5 695.961 97.2492   6
   1   4  -5 1057.46 120.276   3
  -1   4   5 797.367 113.401   2
   1   4  -5 846.486 106.253   4
   1   4  -5 798.326 51.5321   2
  -1   4   5 840.879 97.1425   3
  -1   4   4 1025.54 105.437   3
   1   4  -4 1059.31 118.135   3
   1   4  -4 1107.63 66.5642   2
  -1   4   4 1170.74 122.532   2
   1   4  -4 1095.55 113.435   6
  -1   4   3 401.063 75.3954   2
  -1   4   3 462.537 82.1755   3
   1   4  -3 546.319 85.9220   3
   1   4  -3 483.643 53.0050   2
  -1   4   2-10.7058 51.3232   2
  -1   4   2-11.4110 48.9605   3
   1   4  -2-22.4081 56.1939   3
   1   4  -2 31.5047 34.3793   2
   1   4  -1 251.421 53.0258   2
  -1   4   1 253.701 59.8349   2
   1   4  -1 279.340 71.4987   3
  -1   4   1 329.658 73.9861   3
  -1   4   0 237.480 67.8232   3
   1   4   0 294.631 61.8905   2
  -1   4   0 329.158 52.0116   2
   1   4   0 253.802 62.4528   3
   1   4   1 22.9986 50.3069   3
  -1   4  -1-11.7978 53.6919   3
  -1   4  -1 15.8940 31.5824   2
   1   4   1-23.7661 49.4972   2
   1   4   2 488.832 77.2769   3
  -1   4  -2 516.554 45.7427   2
   1   4   2 323.159 69.7725   2
  -1   4  -2 584.971 89.5670   3
  -1   4  -3 1050.23 124.486   4
  -1   4  -3 892.320 105.506   6
  -1   4  -3 880.999 111.557   3
   1   4   3 945.553 110.179   2
   1   4   3 1086.45 109.130   3
  -1   4  -4 918.826 107.005   6
  -1   4  -4 1065.25 123.852   4
   1   4   4 822.042 119.234   2
  -1   4  -4 870.590 109.155   3
   1   4   4 888.671 100.913   3
   1   4   5 1400.55 145.131   2
  -1   4  -5 1463.50 143.679   4
   1   4   5 1168.84 115.251   3
  -1   4  -5 1472.90 138.180   6
  -1   4  -5 1393.43 141.910   3
  -1   4  -6 1675.02 149.139   3
  -1   4  -6 1478.86 141.821   6
  -1   4  -6 1638.70 155.625   4
   1   4   6 1409.65 154.740   2
   1   4   6 1555.73 124.680   3
   1   4   7 509.571 81.0785   3
  -1   4  -7 522.161 105.696   4
   1   4   7 815.767 136.350   2
  -1   4  -7 611.828 108.631   6
  -1   4  -7 561.911 96.2782   3
   1   4   8 340.366 65.4476   3
  -1   4  -8 376.419 96.3501   3
  -1   4  -8 276.217 101.062   4
   1   4   8 319.082 113.998   2
  -1   4  -8 392.746 98.0516   6
   1   4   9 456.251 69.1885   3
  -1   4  -9 414.796 92.2026   3
  -1   4  -9 378.168 100.362   6
  -1   4  -9 368.859 105.291   4
   1   4   9 392.647 123.069   2
  -1   4 -10 1026.62 127.271   3
   1   4  10 1075.76 86.2834   3
   1   4  10 1096.81 161.849   2
  -1   4 -10 1028.26 149.265   6
  -1   4 -10 1077.62 155.360   4
  -1   4 -11 2260.70 219.918   4
  -1   4 -11 2155.24 210.385   6
  -1   4 -11 2265.45 179.478   3
   1   4  11 2339.96 239.283   2
  -1   4 -12 2588.24 244.680   4
   1   4  12 2445.86 251.381   2
  -1   4 -12 2631.06 245.676   6
  -1   4 -13 270.856 114.375   4
  -1   4 -13 294.310 117.229   6
   1   4  13 547.743 153.564   2
  -1   4 -14 1856.53 226.863   4
   1   4  14 1982.16 248.725   2
  -1   4 -15 390.632 148.308   4
   1   4  15 451.346 153.448   2
   1   5 -16 477.517 153.293   4
   1   5 -15 771.699 179.094   6
   1   5 -15 1025.50 188.080   4
  -1   5  15 665.645 168.957   2
   1   5 -14 1349.66 198.103   6
   1   5 -14 1812.23 218.633   4
  -1   5  14 1606.34 239.228   2
   1   5 -13 519.345 130.893   4
   1   5 -13 667.620 152.746   6
  -1   5  13 838.471 178.900   2
  -1   5  12 788.493 162.620   2
   1   5 -12 903.951 156.183   6
   1   5 -12 789.319 143.920   4
   1   5 -11 2754.01 243.795   6
   1   5 -11 2683.70 238.181   4
  -1   5  11 2813.76 266.278   2
  -1   5  10 1058.24 161.119   2
   1   5 -10 885.315 138.105   6
   1   5 -10 758.665 143.339   4
  -1   5  10 756.867 103.741   3
   1   5  -9 791.679 128.145   4
   1   5  -9 943.360 144.454   6
  -1   5   9 887.095 151.136   2
  -1   5   9 934.894 114.549   3
   1   5  -8 2679.80 217.128   4
  -1   5   8 2615.90 183.412   3
  -1   5   8 2495.61 218.723   2
   1   5  -8 2897.73 225.560   6
   1   5  -7 1495.87 162.389   6
   1   5  -7 1660.46 172.660   4
  -1   5   7 1432.83 171.518   2
  -1   5   7 1479.41 140.486   3
  -1   5   6 524.177 114.798   2
   1   5  -6 654.401 118.481   4
   1   5  -6 754.445 122.246   6
  -1   5   6 732.976 117.291   3
   1   5  -6 614.827 42.0038   2
  -1   5   5 2443.35 192.510   2
   1   5  -5 2637.22 194.885   6
  -1   5   5 2451.47 181.202   3
   1   5  -5 2652.46 101.558   2
  -1   5   4 238.146 83.9599   3
   1   5  -4 255.814 84.3102   6
   1   5  -4 186.805 46.1512   2
  -1   5   4 298.971 90.6932   2
   1   5  -3 973.940 84.1471   2
  -1   5   3 1096.26 124.346   2
  -1   5   3 720.894 103.899   3
  -1   5   2 29.2834 54.2239   2
  -1   5   2 104.629 70.2322   3
   1   5  -2-27.9645 49.2001   2
   1   5  -1 440.417 97.5273   3
   1   5  -1 597.484 78.6744   2
  -1   5   1 575.215 87.5919   2
  -1   5   1 452.722 91.8822   3
  -1   5   0 638.551 82.8247   2
   1   5   0 489.246 94.7053   3
  -1   5   0 529.492 109.646   3
   1   5   0 505.137 84.5244   2
  -1   5  -1 37.7648 44.4569   2
   1   5   1 32.4034 65.0387   3
   1   5   1 44.0502 62.0876   2
  -1   5  -2 1134.26 80.8742   2
   1   5   2 1079.51 125.949   3
   1   5   2 1134.87 121.863   2
  -1   5  -3 358.777 96.4011   4
   1   5   3 390.937 96.5871   2
  -1   5  -3 277.101 38.2981   2
  -1   5  -3 296.568 82.2881   6
   1   5   3 432.800 87.3258   3
  -1   5  -4 2715.82 205.857   4
   1   5   4 2612.05 196.664   2
  -1   5  -4 2492.21 181.702   6
   1   5   4 2553.54 184.816   3
  -1   5  -5 631.091 114.915   4
   1   5   5 571.622 97.7239   3
  -1   5  -5 733.958 116.362   6
   1   5   5 526.332 112.306   2
  -1   5  -6 1288.55 150.141   4
   1   5   6 1299.69 162.757   2
   1   5   6 1215.37 129.537   3
  -1   5  -6 1183.37 145.916   6
   1   5   7 2493.27 221.829   2
  -1   5  -7 2297.20 196.571   6
  -1   5  -7 2489.09 214.925   4
   1   5   7 2601.60 176.180   3
   1   5   8 1033.25 158.736   2
  -1   5  -8 1137.02 148.590   6
  -1   5  -8 1228.24 167.729   4
   1   5   8 1110.36 117.990   3
  -1   5  -9 771.321 140.102   4
   1   5   9 955.398 166.464   2
  -1   5  -9 745.817 128.928   6
   1   5   9 866.449 105.399   3
   1   5  10 2676.78 258.460   2
  -1   5 -10 2702.65 238.109   6
  -1   5 -10 2733.68 242.454   4
   1   5  11 626.683 158.357   2
  -1   5 -11 969.239 161.531   4
  -1   5 -11 1034.02 167.940   6
   1   5  12 202.550 127.057   2
  -1   5 -12 273.971 113.898   6
  -1   5 -13 1299.68 197.664   6
   1   5  13 1744.20 244.936   2
  -1   5 -13 1501.60 207.320   4
  -1   5 -14 655.268 169.114   6
  -1   5 -14 565.090 160.847   4
   1   5  14 962.814 195.283   2
  -1   6  14 194.111 141.619   2
   1   6 -14-40.5605 94.8441   6
   1   6 -14-55.5284 98.2515   4
  -1   6  13 982.547 188.070   2
   1   6 -13 1083.49 192.295   6
   1   6 -13 1024.42 180.398   4
   1   6 -12 1357.87 200.763   4
  -1   6  12 931.191 177.370   2
   1   6 -12 1162.89 184.480   6
   1   6 -11 822.664 157.534   4
  -1   6  11 592.221 171.142   2
   1   6 -11 723.591 145.757   6
   1   6 -10 3744.74 292.814   4
   1   6 -10 3724.07 288.841   6
  -1   6  10 3965.37 313.458   2
  -1   6   9 2196.14 227.531   2
   1   6  -9 2034.58 208.936   4
   1   6  -9 2169.50 217.213   6
  -1   6   8 1172.44 171.788   2
   1   6  -8 1273.03 174.847   4
   1   6  -8 1390.17 172.997   6
   1   6  -7 1838.98 198.471   4
  -1   6   7 1992.23 202.799   2
   1   6  -7 2035.46 198.240   6
   1   6  -6 476.823 113.715   4
  -1   6   6 417.105 113.178   2
   1   6  -6 530.945 112.715   6
   1   6  -5 1536.15 88.7013   2
   1   6  -5 1524.53 168.973   6
  -1   6   5 1217.52 160.064   2
  -1   6   4 373.413 100.247   2
   1   6  -4 286.501 91.8614   6
   1   6  -4 248.703 54.3154   2
  -1   6   3-4.24255 74.0888   2
   1   6  -3 144.546 55.9142   2
  -1   6   2 1830.14 160.971   2
   1   6  -2 2094.15 140.101   2
  -1   6   1 365.468 84.0371   2
   1   6  -1 448.991 90.8197   2
   1   6   0 411.740 88.1094   2
  -1   6   0 379.329 77.6655   2
   1   6   1 1766.54 157.246   2
  -1   6  -1 1903.03 130.951   2
   1   6   2 251.386 88.4813   2
  -1   6  -2 174.274 56.9581   2
  -1   6  -3 321.971 48.5502   2
  -1   6  -3 537.132 120.650   4
  -1   6  -3 376.428 102.137   6
   1   6   3 414.137 104.385   2
   1   6   4 1458.40 165.430   2
  -1   6  -4 1193.66 144.109   6
  -1   6  -4 1586.23 177.277   4
  -1   6  -5 559.916 125.571   4
   1   6   5 544.014 128.086   2
  -1   6  -5 394.888 101.217   6
   1   6   6 2096.25 206.183   2
  -1   6  -6 1759.34 194.500   4
  -1   6  -6 1711.12 177.644   6
  -1   6  -7 1115.32 160.220   4
   1   6   7 1286.72 177.342   2
  -1   6  -7 1084.00 149.264   6
  -1   6  -8 2665.36 251.251   4
  -1   6  -8 2111.44 209.395   6
   1   6   8 2478.11 240.907   2
  -1   6  -9 3759.80 295.593   4
  -1   6  -9 4067.74 292.905   6
   1   6   9 3399.85 288.476   2
   1   6  10 404.215 124.984   2
  -1   6 -10 525.344 140.735   4
  -1   6 -10 422.543 117.158   6
   1   6  11 1091.09 191.170   2
  -1   6 -11 1115.72 177.998   6
  -1   6 -11 1335.00 200.373   4
  -1   6 -12 1019.93 180.721   4
  -1   6 -12 981.291 188.009   6
   1   6  12 1269.60 228.348   2
  -1   6 -13 18.3034 107.055   4
   1   6  13 180.143 126.180   2
  -1   6 -13-119.294 107.963   6
   1   7 -12 554.389 152.391   4
  -1   7  12 531.318 158.685   2
   1   7 -12 481.852 134.804   6
   1   7 -11 1437.85 211.264   4
  -1   7  11 1578.36 233.695   2
   1   7 -11 1444.73 206.348   6
   1   7 -10 1853.69 225.504   6
   1   7 -10 2021.90 238.103   4
  -1   7  10 1598.31 226.460   2
   1   7  -9 957.348 176.061   6
  -1   7   9 708.128 165.327   2
   1   7  -9 554.987 143.767   4
   1   7  -8 4149.67 307.651   6
   1   7  -8 4699.95 332.581   4
  -1   7   8 4370.26 326.177   2
   1   7  -7 797.086 158.942   4
   1   7  -7 1093.99 164.147   6
  -1   7   7 853.189 159.135   2
   1   7  -6 207.538 97.7757   6
   1   7  -6 74.6542 93.9651   4
  -1   7   6 71.6141 100.848   2
   1   7  -5 244.668 46.4691   2
   1   7  -5 272.487 103.741   6
   1   7  -5 228.700 105.334   4
  -1   7   5 288.433 103.921   2
  -1   7   4 647.420 125.045   2
   1   7  -4 737.078 86.1266   2
   1   7  -4 679.499 129.181   6
   1   7  -3 386.343 80.4799   2
  -1   7   3 349.211 105.574   2
   1   7  -2 686.707 100.351   2
  -1   7   2 647.139 105.615   2
   1   7  -1 1256.47 128.539   2
  -1   7   1 1287.75 139.794   2
  -1   7   0 1179.32 123.199   2
   1   7   0 1172.45 137.789   2
  -1   7  -1 621.237 88.4264   2
   1   7   1 768.550 125.973   2
   1   7   2 419.029 108.171   2
  -1   7  -2 339.689 59.1196   2
  -1   7  -3 715.021 74.6450   2
   1   7   3 846.522 141.198   2
  -1   7  -3 865.240 139.498   6
  -1   7  -3 780.671 145.959   4
  -1   7  -4 178.010 88.0833   6
  -1   7  -4 497.138 134.673   4
   1   7   4 254.884 100.206   2
  -1   7  -5 148.926 100.071   4
   1   7   5 98.7206 105.373   2
  -1   7  -5 47.6535 79.0485   6
  -1   7  -6 805.719 156.404   4
   1   7   6 861.696 150.619   2
  -1   7  -6 817.516 150.038   6
   1   7   7 4809.88 334.002   2
  -1   7  -7 4245.98 317.801   4
  -1   7  -7 4527.50 312.802   6
   1   7   8 720.165 148.082   2
  -1   7  -8 1206.04 180.325   6
  -1   7  -8 1057.41 183.366   4
  -1   7  -9 1879.33 235.564   4
  -1   7  -9 2194.91 244.065   6
   1   7   9 2013.30 245.118   2
   1   7  10 1369.45 218.535   2
  -1   7 -10 1965.19 245.498   4
  -1   7 -10 1405.42 207.400   6
  -1   7 -11 551.503 163.470   4
  -1   7 -11 399.115 132.277   6
   1   7  11 323.979 149.469   2
  -1   7 -12 559.988 149.496   6
   1   8 -10 1495.52 221.899   6
  -1   8  10 1334.32 224.311   2
   1   8  -9 622.067 161.121   4
   1   8  -9 975.073 184.878   6
  -1   8   9 696.302 166.756   2
  -1   8   8 611.484 158.403   2
   1   8  -8 539.736 166.296   4
   1   8  -8 471.909 121.429   6
  -1   8   7 354.727 138.317   2
   1   8  -7 221.797 112.939   4
   1   8  -7 392.379 141.511   6
   1   8  -6 1315.71 190.803   4
  -1   8   6 957.799 177.328   2
   1   8  -6 1659.27 208.653   6
  -1   8   5 418.334 113.776   2
   1   8  -5 589.475 134.240   6
   1   8  -5 445.530 137.747   4
  -1   8   4 330.708 104.287   2
   1   8  -4 566.462 141.902   6
  -1   8   3 249.551 100.059   2
   1   8  -3 286.275 76.5763   2
   1   8  -3 145.070 93.8593   6
  -1   8   2 1093.13 152.345   2
   1   8  -2 1168.36 128.192   2
   1   8  -1 222.641 81.2060   2
  -1   8   1 340.117 91.0182   2
   1   8   0 280.689 85.7057   2
  -1   8   0 198.043 93.9750   2
  -1   8  -1 1045.37 123.434   2
   1   8   1 1207.15 162.945   2
  -1   8  -2 308.142 113.747   6
   1   8   2 207.658 91.5742   2
   1   8   3 506.559 122.050   2
  -1   8  -3 446.835 122.049   4
  -1   8  -3 435.993 129.895   6
  -1   8  -4 598.815 142.065   4
  -1   8  -4 765.144 155.563   6
   1   8   4 710.332 147.671   2
   1   8   5 1326.84 186.691   2
  -1   8  -5 1636.78 210.393   6
  -1   8  -5 1449.76 216.798   4
  -1   8  -6 627.287 175.172   6
  -1   8  -6 478.078 145.315   4
   1   8   6 178.067 113.306   2
   1   8   7 213.846 117.067   2
  -1   8  -7 678.482 159.959   6
  -1   8  -7 520.937 156.040   4
   1   8   8 459.737 143.432   2
  -1   8  -8 240.373 122.757   4
   1   8   9 1038.40 206.221   2
  -1   8  -9 1792.34 238.885   6
  -1   8 -10 434.696 148.556   6
  -1   9   8 395.200 148.053   2
   1   9  -7 627.737 167.339   6
  -1   9   7 713.863 201.283   2
  -1   9   6 1132.91 204.744   2
   1   9  -6 1023.37 177.242   6
   1   9  -6 905.470 184.445   4
   1   9  -5 261.459 127.671   4
   1   9  -5 86.7281 111.543   6
  -1   9   5 202.629 132.737   2
   1   9  -4 1315.70 208.160   6
  -1   9   4 1118.42 184.487   2
   1   9  -3-80.4795 100.951   6
  -1   9   3 164.072 96.5652   2
  -1   9   2 272.105 93.4351   2
  -1   9   1 279.331 106.830   2
   1   9   0 149.938 90.8277   2
   1   9   1 220.134 119.444   2
  -1   9  -2-55.8194 132.049   4
   1   9   2-129.337 116.038   2
  -1   9  -2 181.144 129.857   6
  -1   9  -3 1257.52 211.953   4
  -1   9  -3 1186.19 181.828   6
   1   9   3 920.053 166.787   2
   1   9   4 204.778 135.822   2
  -1   9  -4 208.690 123.552   4
  -1   9  -4 87.6981 102.155   6
   1   9   5 828.004 174.337   2
  -1   9  -5 941.981 183.727   6
  -1   9  -5 716.529 180.292   4
   1   9   6 311.169 162.770   2
  -1   9  -6 412.255 127.392   6
  -1   9  -7 492.230 132.974   6
   1   9   7 27.6516 124.259   2
  -1  10   6 174.790 145.936   2
  -1  10   5 374.953 132.020   2
  -1  10  -1-193.898 133.732   6
   1  10   3 461.758 131.466   2
   1  10   4 711.659 188.593   2
   1  10   5 279.675 161.925   2
   2  -9  -9 211.915 126.296   3
   2  -9  -8 2407.07 277.417   3
   2  -9  -7 206.432 116.822   3
  -2  -9   6 4596.29 367.353   5
   2  -9  -6 3906.22 341.361   3
   2  -9  -6 4064.49 376.999   7
   2  -9  -5 968.694 193.882   3
  -2  -9   5 715.469 169.222   5
  -2  -9   4 1009.31 193.516   5
   2  -9  -4 967.993 176.455   3
  -2  -9   3 30.6752 112.097   5
   2  -9  -3 86.7192 101.769   3
   2  -9  -2 1475.78 215.531   3
  -2  -9   2 1799.28 230.029   5
   2  -9  -1 75.5044 110.510   3
  -2  -9   1 137.147 95.5058   5
  -2  -9   0 1926.05 241.374   5
   2  -9   0 1904.75 244.518   3
  -2  -9  -1 78.3960 103.560   5
   2  -9   1 185.568 126.553   5
  -2  -9  -1-27.6111 139.447   7
   2  -9   1 6.17360 99.4731   3
   2  -9   2 1240.39 210.346   3
   2  -9   2 839.992 172.647   5
  -2  -9  -2 696.635 161.206   5
  -2  -9  -2 627.544 173.100   7
  -2  -9  -3 544.703 156.109   5
  -2  -9  -3 610.112 185.780   7
   2  -9   3 588.266 162.199   5
   2  -9   3 748.289 185.705   3
   2  -9   4 4778.30 380.375   5
  -2  -9  -4 4922.94 410.510   7
  -2  -9  -4 4771.64 362.660   5
   2  -9   4 4708.52 378.051   3
  -2  -9  -5 245.010 125.094   5
   2  -9   5 152.633 120.371   3
   2  -9   5 351.315 144.594   5
  -2  -9  -6 2211.01 255.419   5
  -2  -9  -7 73.0679 113.929   5
  -2  -9  -8 268.596 129.478   5
  -2  -8  12 640.593 153.976   5
   2  -8 -11 321.239 156.618   7
  -2  -8  11 280.172 123.929   5
   2  -8 -10 2333.99 279.047   7
   2  -8 -10 3073.76 266.801   3
  -2  -8  10 2734.40 280.465   5
   2  -8  -9-8.97337 95.4282   3
  -2  -8   9 129.754 93.1805   5
   2  -8  -9-16.8601 109.264   7
   2  -8  -8 1677.94 204.906   3
  -2  -8   8 2007.94 248.689   5
   2  -8  -8 2268.26 273.390   7
  -2  -8   7 629.039 148.140   5
   2  -8  -7 721.071 199.327   7
   2  -8  -7 500.251 128.100   3
   2  -8  -6 3600.02 295.617   3
  -2  -8   6 3792.35 313.013   5
  -2  -8   5 117.854 92.9872   5
   2  -8  -5 112.692 93.8559   3
  -2  -8   4 4514.66 337.716   5
   2  -8  -4 5360.99 354.461   3
   2  -8  -3 207.579 100.693   3
  -2  -8   3 269.053 124.169   5
  -2  -8   2 1938.29 224.858   5
   2  -8  -2 2146.52 231.536   3
   2  -8  -1 1352.77 196.239   3
  -2  -8   1 1491.69 204.149   5
  -2  -8   0 2168.37 243.577   5
   2  -8   0 2150.00 243.591   3
   2  -8   1 385.018 126.287   3
  -2  -8  -1 125.668 94.8824   5
  -2  -8  -2 5123.33 343.597   5
   2  -8   2 5290.33 365.542   3
  -2  -8  -2 5197.20 378.214   7
  -2  -8  -3 17.9121 119.935   7
   2  -8   3 53.2550 113.393   3
   2  -8   3 63.1359 94.4563   5
  -2  -8  -3 76.7459 115.456   5
  -2  -8  -4 3346.61 321.282   7
  -2  -8  -4 3235.78 288.399   5
   2  -8   4 3023.73 284.251   3
   2  -8   4 2983.22 280.807   5
   2  -8   5 730.427 148.604   5
  -2  -8  -5 440.948 131.763   5
   2  -8   5 653.283 160.726   3
  -2  -8  -5 350.644 129.574   7
   2  -8   6 2019.11 244.278   3
   2  -8   6 2231.66 253.107   5
  -2  -8  -6 2084.29 232.765   5
  -2  -8  -6 1731.36 249.963   7
   2  -8   7 109.352 109.961   5
  -2  -8  -7 37.7281 112.688   7
  -2  -8  -7 109.579 93.8678   5
  -2  -8  -8 2340.37 247.587   5
  -2  -8  -8 2372.09 287.697   7
   2  -8   8 2237.95 248.662   5
  -2  -8  -9 185.364 110.942   5
   2  -8   9 269.402 119.926   5
   2  -8  10 918.329 175.908   5
   2  -8  11 515.385 147.226   5
  -2  -7  14 536.839 153.352   5
   2  -7 -14 581.512 169.304   7
  -2  -7  13-136.145 106.691   5
   2  -7 -13 237.046 133.700   7
   2  -7 -12 1263.95 205.280   7
  -2  -7  12 1501.52 203.085   5
   2  -7 -11 694.026 167.129   7
   2  -7 -11 847.400 130.858   3
  -2  -7  11 495.941 130.533   5
   2  -7 -10-54.6493 83.7261   3
   2  -7 -10 1.73513 113.569   7
  -2  -7  10-33.0004 86.1052   5
   2  -7  -9 561.473 136.118   3
  -2  -7   9 280.938 114.955   5
   2  -7  -9 373.426 134.589   7
   2  -7  -8 8456.20 405.509   3
   2  -7  -8 7960.72 445.378   7
  -2  -7   8 8312.74 430.195   5
   2  -7  -7 25.7713 112.452   7
  -2  -7   7 203.739 103.224   5
   2  -7  -7 121.471 110.201   3
  -2  -7   6 3314.82 264.490   5
   2  -7  -6 3151.53 253.756   3
  -2  -7   5 106.686 80.9042   5
   2  -7  -5 314.466 117.816   3
  -2  -7   5 317.387 83.5935   1
  -2  -7   4 142.313 79.0705   1
   2  -7  -4 51.6314 79.9369   3
  -2  -7   4 193.317 97.6474   5
  -2  -7   3 381.993 103.551   5
  -2  -7   3 312.388 86.5650   1
   2  -7  -3 325.984 101.129   3
  -2  -7   2 14004.5 516.158   5
   2  -7  -2 15081.7 539.352   3
   2  -7  -1 522.619 93.0649   2
   2  -7  -1 737.487 130.920   3
  -2  -7   1 552.745 125.100   5
   2  -7   0 15915.4 562.537   3
  -2  -7   0 15019.8 535.943   5
   2  -7   0 14343.7 372.559   2
  -2  -7  -1 442.864 128.290   5
   2  -7   1 269.729 61.8565   2
   2  -7   1 601.600 138.806   3
  -2  -7  -2 50.0606 103.065   7
  -2  -7  -2 100.908 84.5998   5
   2  -7   2 39.0904 85.3350   3
  -2  -7  -3 340.524 114.943   5
   2  -7   3 342.962 117.907   3
  -2  -7  -3 290.938 129.051   7
   2  -7   4 3222.83 262.246   5
   2  -7   4 2990.07 257.386   3
  -2  -7  -4 3785.31 269.055   5
  -2  -7  -4 3554.32 298.328   7
   2  -7   5 157.516 78.1153   5
   2  -7   5 207.310 116.722   3
  -2  -7  -5 141.104 93.3209   5
  -2  -7  -5 122.685 125.717   7
   2  -7   6 7742.22 400.426   5
  -2  -7  -6 7901.26 451.551   7
  -2  -7  -6 7851.96 386.471   5
   2  -7   6 7556.79 411.004   3
  -2  -7  -7 507.446 128.145   5
   2  -7   7 571.445 145.307   3
   2  -7   7 583.639 134.686   5
  -2  -7  -7 433.602 140.282   7
   2  -7   8-7.89011 79.9998   5
  -2  -7  -8 171.227 128.038   7
  -2  -7  -8-7.93983 78.9409   5
  -2  -7  -9 566.733 141.864   7
  -2  -7  -9 773.435 143.348   5
   2  -7   9 715.709 142.494   5
   2  -7  10 1585.54 202.721   5
  -2  -7 -10 1510.05 239.440   7
  -2  -7 -11 267.555 139.722   7
   2  -7  11 127.709 105.549   5
   2  -6 -16 786.971 187.379   7
  -2  -6  15 95.6261 87.8352   5
   2  -6 -15 266.883 150.116   7
   2  -6 -14 598.952 170.791   7
  -2  -6  14 474.725 129.295   5
  -2  -6  13 186.216 109.912   5
   2  -6 -13 314.733 165.555   7
   2  -6 -12 683.509 110.609   3
  -2  -6  12 995.973 162.604   5
   2  -6 -12 691.067 168.088   7
   2  -6 -11 266.359 119.249   7
   2  -6 -11 390.146 97.6553   3
  -2  -6  11 495.489 125.487   5
  -2  -6  10 12357.0 489.574   5
   2  -6 -10 11472.9 505.228   7
   2  -6 -10 12007.9 430.929   3
   2  -6  -9 363.126 126.433   7
   2  -6  -9 323.868 96.5931   3
  -2  -6   9 526.255 130.720   5
  -2  -6   8 1527.60 180.721   5
   2  -6  -8 1204.92 177.270   7
   2  -6  -8 1504.24 165.979   3
   2  -6  -7 570.986 138.492   7
  -2  -6   7 581.071 130.364   5
   2  -6  -7 685.440 122.473   3
  -2  -6   7 451.767 50.5340   1
  -2  -6   6 706.954 73.8822   1
   2  -6  -6 583.403 112.243   3
  -2  -6   6 786.688 138.950   5
  -2  -6   5 244.202 101.484   5
   2  -6  -5 216.266 91.6358   3
  -2  -6   5 191.282 56.6225   1
   2  -6  -4 13508.3 465.670   3
  -2  -6   4 13313.6 468.774   5
  -2  -6   4 13385.1 340.212   1
  -2  -6   3 66.6071 77.0532   5
   2  -6  -3 127.315 72.9716   2
   2  -6  -3 172.528 85.6530   3
  -2  -6   3 86.2716 70.1693   1
  -2  -6   2 5429.83 246.784   1
   2  -6  -2 5100.68 292.873   3
   2  -6  -2 4793.03 237.386   2
  -2  -6   2 5348.73 294.066   5
   2  -6  -1 1932.24 197.754   3
  -2  -6   1 1745.05 174.329   5
   2  -6  -1 1870.04 141.743   2
  -2  -6   1 1873.21 164.058   1
   2  -6   0 5376.64 305.375   3
   2  -6   0 4888.99 207.665   2
  -2  -6   0 5184.95 266.893   1
  -2  -6   0 5113.67 251.629   2
  -2  -6   0 5215.80 296.363   5
   2  -6   1 218.607 81.0332   3
   2  -6   1 132.143 51.4757   2
  -2  -6  -1 125.302 92.3046   5
   2  -6   2 13545.4 481.749   3
   2  -6   3 80.3716 86.8328   3
  -2  -6  -3 183.209 93.7266   7
   2  -6   4 897.061 135.759   3
  -2  -6  -4 935.728 160.401   7
  -2  -6  -5 504.568 131.557   7
   2  -6   5 515.870 104.093   3
   2  -6   5 385.069 104.936   5
  -2  -6  -6 1351.77 190.722   7
   2  -6   6 1684.57 186.759   3
   2  -6   6 1590.81 174.527   5
  -2  -6  -7 338.420 117.109   7
   2  -6   7 500.988 117.877   3
   2  -6   7 377.910 103.948   5
   2  -6   8 12312.9 481.129   3
   2  -6   8 11503.3 454.244   5
  -2  -6  -8 12260.2 538.531   7
   2  -6   9 487.763 121.399   5
  -2  -6  -9 304.170 123.441   7
  -2  -6 -10 736.125 122.519   5
  -2  -6 -10 531.484 142.141   7
   2  -6  10 857.444 142.534   5
  -2  -6 -11 90.1649 102.166   7
   2  -6  11 251.418 104.783   5
   2  -6  12 583.532 131.210   5
  -2  -6 -12 739.538 183.294   7
  -2  -6 -13 99.7869 129.423   7
   2  -5 -17 235.524 114.479   7
   2  -5 -16 303.983 150.043   7
  -2  -5  15 993.608 154.179   5
   2  -5 -15 1420.71 204.797   7
   2  -5 -14 1288.55 195.554   7
  -2  -5  14 1957.02 202.228   5
  -2  -5  13 362.927 110.332   5
   2  -5 -13 340.962 123.259   7
   2  -5 -12 3856.68 297.654   7
   2  -5 -12 3998.61 208.454   3
  -2  -5  12 3723.92 264.441   5
  -2  -5  11 732.714 131.199   5
   2  -5 -11 765.768 105.335   3
   2  -5 -11 729.961 139.670   7
   2  -5 -10 51.3707 83.3946   7
   2  -5 -10-39.7357 62.2077   3
  -2  -5  10 83.2533 68.2514   5
   2  -5  -9 666.191 139.901   7
   2  -5  -9 591.712 98.1357   3
  -2  -5   9 461.482 108.868   5
   2  -5  -8 10993.8 440.871   7
  -2  -5   8 11192.9 409.269   5
   2  -5  -8 11070.8 370.150   3
   2  -5  -7 926.591 148.524   7
   2  -5  -7 1222.23 137.256   3
  -2  -5   7 1259.98 152.003   5
   2  -5  -6 10778.4 372.323   3
  -2  -5   6 10749.1 387.341   5
  -2  -5   6 10681.6 216.355   1
   2  -5  -5 1610.06 152.521   3
   2  -5  -5 1428.59 151.484   2
  -2  -5   5 1750.46 162.753   5
  -2  -5   5 1684.75 102.953   1
   2  -5  -4 4377.08 234.350   2
   2  -5  -4 4356.62 244.567   3
  -2  -5   4 4610.53 177.059   1
  -2  -5   4 4308.42 245.112   5
   2  -5  -3 887.063 122.773   3
   2  -5  -3 1013.63 113.609   2
  -2  -5   3 1003.02 122.977   5
  -2  -5   3 1105.46 104.858   1
   2  -5  -2 20901.9 523.944   3
   2  -5  -2 20151.6 430.817   2
  -2  -5   2 21068.5 521.257   5
  -2  -5   2 20979.9 431.467   1
   2  -5  -1 66.5897 49.5293   2
  -2  -5   1-31.5331 61.3090   1
   2  -5  -1-30.8594 67.2138   3
  -2  -5   1 11.3090 66.2750   5
  -2  -5   0 21087.6 512.386   5
   2  -5   0 20596.2 367.796   2
  -2  -5   0 20291.8 450.470   2
   2  -5   0 19883.6 519.793   3
  -2  -5   0 21840.5 477.603   1
  -2  -5  -1 1136.23 123.437   1
  -2  -5  -1 1042.96 118.792   2
   2  -5   1 1076.95 128.503   3
   2  -5   1 1077.52 80.1779   2
   2  -5   2 4219.19 245.334   3
   2  -5   2 4306.52 128.345   2
  -2  -5  -2 3746.07 246.246   7
  -2  -5  -2 4193.46 230.165   2
  -2  -5  -2 4273.14 239.358   1
  -2  -5  -3 1675.01 180.270   7
   2  -5   3 1408.79 151.153   3
  -2  -5  -4 10058.2 411.548   7
   2  -5   4 9916.96 379.410   3
   2  -5   5 1549.80 151.405   5
  -2  -5  -5 1323.89 178.142   7
   2  -5   5 1381.64 155.719   3
   2  -5   6 12302.0 416.787   5
  -2  -5  -6 10763.3 446.355   7
   2  -5   6 12148.8 425.983   3
   2  -5   7 511.191 101.488   5
   2  -5   7 445.284 100.849   3
  -2  -5  -7 576.507 129.004   7
   2  -5   8 129.179 70.4024   5
   2  -5   8-59.4781 71.8133   3
  -2  -5  -8 21.0406 78.4073   7
  -2  -5  -9 517.997 135.057   7
   2  -5   9 725.869 112.971   5
   2  -5   9 754.895 75.1549   1
  -2  -5 -10 3827.34 302.239   7
   2  -5  10 4032.71 253.216   5
  -2  -5 -11 414.873 134.396   7
   2  -5  11 286.445 86.0742   5
   2  -5  12 1373.27 157.306   5
  -2  -5 -12 1764.12 227.769   7
  -2  -5 -13 982.441 184.703   7
  -2  -5 -14 4.56475 108.318   7
   2  -4 -18 466.515 154.934   7
   2  -4 -17 127.807 138.058   7
   2  -4 -16 1150.63 194.722   7
  -2  -4  15 482.711 100.482   5
   2  -4 -15 623.505 144.266   7
  -2  -4  14 1360.42 161.987   5
   2  -4 -14 1416.44 185.679   7
   2  -4 -13 1442.59 173.769   7
   2  -4 -13 1624.29 108.466   3
  -2  -4  13 1689.86 170.049   5
   2  -4 -12 2425.26 219.238   7
   2  -4 -12 2375.53 140.047   3
   2  -4 -12 2343.97 175.877   5
  -2  -4  12 2459.08 198.648   5
  -2  -4  11 710.541 112.417   5
   2  -4 -11 590.706 118.136   7
   2  -4 -11 611.243 84.6405   3
   2  -4 -11 682.459 97.2094   5
   2  -4 -10 3114.93 232.456   7
  -2  -4  10 2984.07 213.174   5
   2  -4 -10 2779.31 162.701   3
   2  -4 -10 2879.48 197.809   5
   2  -4  -9 174.536 98.1533   7
   2  -4  -9 221.102 83.1634   5
   2  -4  -9 36.7207 51.5589   3
  -2  -4   9 90.6441 71.6041   5
   2  -4  -8 5535.72 288.160   7
   2  -4  -8 5257.24 231.022   3
  -2  -4   8 5356.96 264.793   5
   2  -4  -7 1613.91 134.843   3
  -2  -4   7 1251.95 134.719   5
   2  -4  -7 1283.94 145.536   7
  -2  -4   6 21716.6 495.887   5
   2  -4  -6 21316.9 460.188   3
   2  -4  -6 21677.7 515.427   2
  -2  -4   5 1669.35 144.893   5
  -2  -4   5 1955.97 84.6526   1
   2  -4  -5 1782.19 141.828   3
   2  -4  -5 1707.09 147.232   2
  -2  -4   4 30619.0 372.166   1
  -2  -4   4 29852.3 565.101   5
   2  -4  -4 29248.9 535.823   2
   2  -4  -4 29534.0 547.595   3
   2  -4  -3 456.269 84.5460   3
  -2  -4   3 338.708 73.9732   5
  -2  -4   3 547.532 64.1604   1
   2  -4  -3 466.872 80.4178   2
   2  -4  -2 5746.98 248.313   3
   2  -4  -2 5758.32 209.003   2
  -2  -4   2 5825.21 244.650   5
  -2  -4   2 6169.40 202.680   1
   2  -4  -1 94.6398 66.9936   3
   2  -4  -1-10.2345 40.6204   2
  -2  -4   1-23.2437 51.2418   5
  -2  -4   1-36.5607 53.2983   1
  -2  -4   1-29.9848 43.7378   2
  -2  -4   0 5947.19 219.363   2
  -2  -4   0 5901.20 224.721   1
   2  -4   0 5883.21 173.871   2
  -2  -4   0 5675.07 238.948   3
   2  -4   0 5732.45 251.960   3
   2  -4   1 526.840 49.9594   2
  -2  -4  -1 453.672 76.8465   2
   2  -4   1 519.596 89.7555   3
  -2  -4  -1 561.863 87.9580   1
  -2  -4  -2 29382.0 537.052   2
  -2  -4  -2 28779.9 592.015   7
   2  -4   2 29209.6 561.867   3
   2  -4   2 28537.4 261.977   2
  -2  -4  -2 30081.4 555.887   1
  -2  -4  -3 1813.20 155.500   1
  -2  -4  -3 1942.79 172.119   7
  -2  -4  -3 1732.34 146.562   2
   2  -4   3 1865.34 149.568   3
  -2  -4  -4 22780.2 532.715   1
   2  -4   4 22459.3 505.725   3
  -2  -4  -4 23654.7 534.827   2
  -2  -4  -4 23119.1 561.120   7
   2  -4   5 1446.91 141.275   3
  -2  -4  -5 1488.33 153.564   7
   2  -4   6 5252.20 255.436   3
  -2  -4  -6 5259.17 294.349   7
   2  -4   6 5399.45 250.045   5
   2  -4   7 197.697 70.6941   5
   2  -4   7 209.150 77.9766   3
  -2  -4  -7 202.247 88.0552   7
  -2  -4  -8 3219.20 249.641   7
   2  -4   8 3644.68 154.886   1
   2  -4   8 3615.49 216.300   3
   2  -4   8 3784.95 214.599   5
  -2  -4  -9 558.263 122.911   7
  -2  -4  -9 682.094 89.9952   5
   2  -4   9 738.070 76.6835   1
   2  -4   9 583.205 97.0276   5
  -2  -4 -10 2175.96 221.983   7
  -2  -4 -10 2259.88 145.238   5
   2  -4  10 2424.34 133.290   1
   2  -4  10 2610.93 182.644   5
  -2  -4 -11 1630.32 114.880   5
  -2  -4 -11 1686.55 198.901   7
   2  -4  11 1614.34 112.591   1
   2  -4  11 1927.74 159.551   5
  -2  -4 -12 1180.05 188.136   7
   2  -4  12 1224.01 132.909   5
  -2  -4 -13 651.895 154.505   7
  -2  -4 -14 1184.94 196.351   7
  -2  -4 -15 219.593 119.778   7
  -2  -4 -16 59.8853 112.536   7
   2  -3 -18 173.331 110.059   7
   2  -3 -17 408.160 117.199   7
   2  -3 -16 288.095 110.439   7
  -2  -3  15 2167.86 175.012   5
   2  -3 -15 2516.54 229.677   7
  -2  -3  14 6985.18 304.442   5
   2  -3 -14 6344.70 335.656   7
  -2  -3  13 362.403 85.9893   7
   2  -3 -13 360.352 69.9482   5
   2  -3 -13 419.081 110.015   7
  -2  -3  13 259.532 80.9394   5
   2  -3 -12 3255.63 185.015   5
   2  -3 -12 3793.70 243.507   7
  -2  -3  12 3764.89 216.749   5
  -2  -3  12 3744.34 212.048   7
   2  -3 -12 3152.36 127.945   3
   2  -3 -11 406.224 73.7050   5
   2  -3 -11 238.759 88.2862   7
  -2  -3  11 312.523 79.8127   7
   2  -3 -11 360.030 61.1395   3
  -2  -3  11 490.512 94.0581   5
   2  -3 -10 933.425 130.519   7
   2  -3 -10 1004.61 90.0031   3
   2  -3 -10 868.760 103.694   5
  -2  -3  10 1022.52 121.375   5
  -2  -3   9 532.702 89.4617   5
   2  -3  -9 600.205 89.8696   5
   2  -3  -9 668.698 108.353   7
   2  -3  -9 557.702 70.6193   3
   2  -3  -8 12340.6 294.655   3
   2  -3  -8 12346.1 375.617   7
   2  -3  -8 12176.3 338.409   5
  -2  -3   8 12218.3 352.274   5
  -2  -3   8 12997.0 397.596   6
   2  -3  -8 12380.0 403.448   2
  -2  -3   7 689.387 96.6593   5
  -2  -3   7 666.839 102.552   6
   2  -3  -7 702.740 89.2391   5
   2  -3  -7 658.200 109.157   2
   2  -3  -7 623.756 77.3834   3
   2  -3  -7 497.348 100.641   7
   2  -3  -6 41684.0 554.731   3
  -2  -3   6 42928.8 620.288   5
   2  -3  -6 43653.9 660.553   7
   2  -3  -6 43271.3 671.683   2
   2  -3  -5 1565.58 128.754   2
   2  -3  -5 1476.99 113.314   3
  -2  -3   5 1424.58 120.093   5
   2  -3  -4 47.8732 43.1553   3
   2  -3  -4 54.5393 49.5184   2
  -2  -3   4 77.2444 24.8912   1
  -2  -3   4 6.39101 43.3583   5
   2  -3  -3 414.818 71.4116   3
   2  -3  -3 472.369 69.2665   2
  -2  -3   3 475.880 49.2936   1
  -2  -3   3 330.296 66.4812   5
   2  -3  -2 1668.30 122.376   3
   2  -3  -2 1840.87 107.271   2
  -2  -3   2 1748.93 121.089   5
  -2  -3   2 1660.49 93.9362   1
  -2  -3   1 858.911 89.3293   5
  -2  -3   1 953.165 81.3585   1
   2  -3  -1 635.353 81.0940   3
   2  -3  -1 815.208 73.1520   2
  -2  -3   0 1663.85 114.411   5
  -2  -3   0 1660.19 109.332   1
   2  -3   0 1490.44 113.958   3
   2  -3   0 1670.26 82.9295   2
  -2  -3   0 1591.46 106.637   2
  -2  -3  -1 424.457 67.5880   2
  -2  -3  -1 449.050 88.3464   7
   2  -3   1 428.551 39.3954   2
  -2  -3  -1 462.680 71.5214   1
   2  -3   1 383.568 71.9843   3
   2  -3   2 56.5020 56.2262   3
  -2  -3  -2 50.3942 51.5449   1
  -2  -3  -2 73.6817 48.8726   2
  -2  -3  -2 23.6031 62.6288   7
  -2  -3  -3 1226.64 123.489   7
  -2  -3  -3 1513.29 126.173   2
  -2  -3  -3 1442.17 124.070   1
   2  -3   3 1412.21 115.682   3
   2  -3   4 43404.2 609.136   6
   2  -3   4 42595.9 607.570   3
  -2  -3  -4 43062.6 661.079   1
  -2  -3  -4 42523.9 656.873   2
  -2  -3  -4 41461.7 669.468   7
   2  -3   5 584.579 77.1392   5
  -2  -3  -5 647.096 104.722   1
  -2  -3  -5 633.175 103.354   7
   2  -3   5 642.827 85.9458   3
  -2  -3  -5 678.733 99.2709   2
   2  -3   5 705.595 99.8731   6
  -2  -3  -6 10764.4 376.409   7
   2  -3   6 11637.3 309.121   5
  -2  -3  -6 11035.6 379.996   2
  -2  -3  -6 11098.2 376.092   1
   2  -3   6 12022.7 380.470   4
   2  -3   6 11688.8 353.859   6
   2  -3   6 11537.9 323.664   3
   2  -3   7 619.579 84.6996   5
  -2  -3  -7 579.481 111.387   7
   2  -3   7 709.008 92.2476   3
   2  -3   7 647.346 75.0778   1
   2  -3   7 525.937 91.6365   6
   2  -3   8 866.478 83.2730   1
  -2  -3  -8 910.335 82.1336   5
   2  -3   8 856.519 99.3754   3
  -2  -3  -8 1110.89 141.256   7
   2  -3   8 948.101 102.207   5
   2  -3   8 855.724 49.0722   2
  -2  -3  -9 437.733 60.6282   5
  -2  -3  -9 460.530 113.887   7
   2  -3   9 422.744 76.0956   5
   2  -3   9 386.154 44.5052   2
   2  -3   9 369.373 65.1727   1
  -2  -3 -10 4031.86 145.299   5
  -2  -3 -10 3898.60 270.013   7
   2  -3  10 4508.55 189.962   1
   2  -3  10 4027.31 196.399   5
   2  -3  10 4159.23 138.365   2
  -2  -3 -11 252.901 37.2405   5
  -2  -3 -11 257.590 38.5163   5
   2  -3  11 434.712 79.3668   5
  -2  -3 -11 172.419 92.7187   7
   2  -3  11 496.427 77.3374   1
   2  -3  11 337.478 50.3617   2
   2  -3  12 7219.76 264.107   1
  -2  -3 -12 6555.85 370.594   7
   2  -3  12 6613.86 247.548   5
  -2  -3 -13 2418.03 244.914   7
  -2  -3 -14-89.1455 140.459   7
  -2  -3 -15 622.532 188.129   7
  -2  -3 -16 280.833 152.317   7
  -2  -3 -17-164.216 139.888   7
   2  -2 -18 102.436 88.3386   7
   2  -2 -17 496.930 119.788   7
   2  -2 -16 2740.62 223.420   7
  -2  -2  16 2741.94 198.299   2
  -2  -2  15 1267.74 120.789   5
  -2  -2  15 1901.51 171.140   2
   2  -2 -15 1553.67 174.029   7
  -2  -2  14 1106.58 116.475   5
  -2  -2  14 1319.69 132.775   2
   2  -2 -14 1012.44 135.247   7
  -2  -2  13 1595.71 132.462   5
   2  -2 -13 1519.10 156.713   7
  -2  -2  13 1785.89 146.092   2
  -2  -2  13 1396.09 141.602   7
   2  -2 -13 1515.13 119.871   5
  -2  -2  12 1118.96 115.936   2
  -2  -2  12 1135.11 111.269   5
   2  -2 -12 479.215 36.6148   3
  -2  -2  12 882.155 113.363   7
   2  -2 -12 929.106 98.2853   5
   2  -2 -12 1278.21 142.066   7
   2  -2 -11 754.047 85.0440   5
  -2  -2  11 950.703 99.0756   2
  -2  -2  11 959.027 106.745   7
  -2  -2  11 891.324 103.158   5
   2  -2 -11 644.340 52.5682   3
   2  -2 -11 986.580 121.676   7
   2  -2 -10 9525.77 199.671   3
   2  -2 -10 10867.9 339.686   7
   2  -2 -10 10035.1 279.150   5
  -2  -2  10 11122.9 302.006   7
  -2  -2  10 11232.5 319.672   5
   2  -2 -10 10478.3 364.606   1
  -2  -2  10 10474.4 277.357   2
  -2  -2  10 11060.8 362.377   4
   2  -2  -9 825.201 67.1077   3
  -2  -2   9 900.750 84.9162   2
   2  -2  -9 978.197 109.455   7
  -2  -2   9 910.154 117.006   6
   2  -2  -9 942.755 120.869   1
   2  -2  -9 791.937 83.0695   5
   2  -2  -9 848.712 115.601   2
  -2  -2   9 939.262 90.2005   7
  -2  -2   9 884.734 111.546   4
  -2  -2   9 868.014 95.3768   5
   2  -2  -8 1472.47 134.539   2
  -2  -2   8 1336.87 125.119   6
   2  -2  -8 1168.57 80.5000   3
  -2  -2   8 1300.76 109.173   5
   2  -2  -8 1125.94 99.3992   5
   2  -2  -8 1357.56 118.996   7
   2  -2  -7 333.964 50.6331   3
   2  -2  -7 465.067 64.5129   5
   2  -2  -7 339.101 65.2586   7
  -2  -2   7 340.443 73.5033   6
  -2  -2   7 427.183 66.4046   5
   2  -2  -7 291.166 75.0545   2
   2  -2  -6 38625.8 445.873   3
  -2  -2   6 40290.8 574.753   6
   2  -2  -6 37188.7 530.824   7
  -2  -2   6 38974.3 524.494   5
   2  -2  -6 39234.3 588.599   2
   2  -2  -6 38257.6 503.378   5
   2  -2  -5 738.762 89.3409   2
   2  -2  -5 789.002 86.0350   7
   2  -2  -5 735.285 78.1124   5
   2  -2  -5 612.086 67.7170   3
  -2  -2   5 895.376 83.1449   5
  -2  -2   5 844.186 89.9271   6
  -2  -2   4 104297. 790.713   5
   2  -2  -4 96699.8 716.764   3
   2  -2  -4 101306. 823.125   2
  -2  -2   3 903.601 41.7743   1
   2  -2  -3 773.497 78.9665   2
  -2  -2   3 831.459 80.4741   5
   2  -2  -3 859.154 77.5489   3
   2  -2  -2 5642.84 181.255   3
  -2  -2   2 5800.38 125.223   1
   2  -2  -2 5504.89 162.521   2
  -2  -2   2 5783.54 179.376   5
   2  -2  -1 630.236 55.3587   2
  -2  -2   1 588.722 57.9764   1
   2  -2  -1 689.096 73.5297   3
  -2  -2   1 590.321 66.4459   5
  -2  -2   0 5556.60 164.250   1
  -2  -2   0 5757.93 169.205   5
   2  -2   0 5529.83 180.452   3
  -2  -2   0 5665.61 166.327   2
   2  -2   0 5947.96 123.068   2
   2  -2   1 820.087 39.1939   2
  -2  -2  -1 769.232 77.2303   2
  -2  -2  -1 771.176 84.8847   7
  -2  -2  -1 731.426 67.7877   5
  -2  -2  -1 817.189 79.0578   1
   2  -2   1 835.538 81.0583   3
  -2  -2  -2 101843. 804.156   2
  -2  -2  -2 102891. 845.319   7
   2  -2   2 103640. 770.605   3
  -2  -2  -2 102195. 804.898   1
   2  -2   2 102851. 723.110   6
   2  -2   2 104014. 813.605   4
  -2  -2  -3 749.168 92.2517   7
  -2  -2  -3 858.373 88.3140   2
   2  -2   3 785.247 77.3043   3
   2  -2   3 910.110 82.1469   6
  -2  -2  -3 796.860 91.9199   1
   2  -2   3 747.275 91.0265   4
  -2  -2  -4 35688.2 561.539   7
  -2  -2  -4 36191.4 548.866   2
  -2  -2  -4 36918.2 556.814   1
   2  -2   4 37671.3 561.298   4
   2  -2   4 32929.4 240.372   2
   2  -2   4 36636.8 473.272   3
   2  -2   4 36323.5 512.215   6
   2  -2   5 461.082 74.9438   6
   2  -2   5 332.648 34.2145   2
   2  -2   5 329.128 55.0709   5
   2  -2   5 285.290 52.3795   3
   2  -2   5 276.961 69.5715   4
  -2  -2  -5 248.016 69.8802   7
  -2  -2  -5 331.234 70.4239   2
  -2  -2  -5 339.324 77.9981   1
  -2  -2  -6 1479.81 137.064   7
   2  -2   6 1395.73 95.1036   5
   2  -2   6 1385.07 123.707   6
   2  -2   6 1445.10 133.053   4
   2  -2   6 1517.74 76.6896   2
  -2  -2  -6 1457.84 134.863   2
  -2  -2  -6 1356.31 127.553   1
   2  -2   6 1374.14 101.509   3
   2  -2   6 1365.70 92.2974   1
  -2  -2  -7 767.594 57.0746   5
   2  -2   7 804.364 105.772   6
  -2  -2  -7 924.687 117.666   2
   2  -2   7 907.737 118.716   4
   2  -2   7 913.717 83.3761   1
   2  -2   7 841.184 80.9650   3
   2  -2   7 866.303 69.6048   2
   2  -2   7 950.022 81.5557   5
  -2  -2  -7 837.763 110.787   1
   2  -2   7 916.627 109.484   7
  -2  -2  -7 822.336 114.089   7
  -2  -2  -8 8990.27 169.870   5
   2  -2   8 9837.03 340.795   7
   2  -2   8 9477.62 240.246   5
   2  -2   8 9688.34 250.345   3
   2  -2   8 9775.56 237.362   2
   2  -2   8 9563.77 262.491   1
  -2  -2  -8 9473.33 354.232   7
  -2  -2  -9 907.326 137.875   7
   2  -2   9 804.346 79.0006   5
   2  -2   9 944.570 98.3748   1
   2  -2   9 913.279 91.0623   2
   2  -2  10 1052.19 112.673   1
   2  -2  10 995.550 85.1421   5
   2  -2  10 835.707 91.9893   2
  -2  -2 -10 900.441 138.533   7
  -2  -2 -11 1580.73 177.414   7
   2  -2  11 1521.91 101.314   5
   2  -2  11 1692.62 128.738   2
   2  -2  11 1530.33 139.891   1
   2  -2  12 1272.05 87.9822   5
   2  -2  12 1491.36 129.339   2
  -2  -2 -12 1433.94 184.493   7
   2  -2  12 1523.28 140.782   1
  -2  -2 -13 1465.50 184.154   7
   2  -2  13 1683.45 148.657   2
  -2  -2 -14 2974.58 266.824   7
  -2  -2 -15 354.351 150.025   7
  -2  -2 -16 98.3914 143.622   7
  -2  -1  17 1266.37 165.663   2
  -2  -1  16 497.032 119.879   2
   2  -1 -15 1286.12 145.961   7
  -2  -1  15 1134.37 142.552   2
  -2  -1  15 1134.32 110.062   5
  -2  -1  14 2920.30 203.542   7
   2  -1 -14 2775.50 150.084   5
  -2  -1  14 2889.22 164.920   5
   2  -1 -14 3245.72 214.303   7
  -2  -1  14 3369.53 221.919   2
   2  -1 -13-7.98443 41.1328   5
   2  -1 -13 22.4186 57.8842   7
  -2  -1  13 74.3386 70.3123   2
  -2  -1  13 6.14190 45.5684   5
   2  -1 -13 157.090 66.0731   4
  -2  -1  13-17.0958 61.8024   7
  -2  -1  12 5840.82 219.673   5
   2  -1 -12 6100.82 275.313   1
   2  -1 -12 6146.25 269.077   7
  -2  -1  12 6024.30 266.288   2
   2  -1 -12 5907.87 211.262   5
   2  -1 -12 5742.17 266.493   4
  -2  -1  12 6008.46 252.948   7
   2  -1 -11 1062.36 92.8131   5
  -2  -1  11 1034.30 127.749   4
   2  -1 -11 1283.27 126.141   7
   2  -1 -11 661.083 43.1607   3
   2  -1 -11 1117.60 126.943   1
  -2  -1  11 1174.69 101.562   5
  -2  -1  11 1023.41 120.684   2
   2  -1 -11 1164.68 119.923   4
  -2  -1  11 1060.76 105.773   7
   2  -1 -10 1603.94 140.212   1
   2  -1 -10 1665.00 112.495   5
   2  -1 -10 1726.55 130.309   7
  -2  -1  10 1705.88 142.918   4
   2  -1 -10 1917.40 165.749   2
  -2  -1  10 1798.81 119.022   5
  -2  -1  10 1766.53 123.413   7
   2  -1 -10 1420.33 67.1424   3
  -2  -1  10 2014.63 144.436   2
   2  -1 -10 1803.47 132.117   4
  -2  -1   9 1156.33 104.165   2
   2  -1  -9 1087.37 88.6358   5
   2  -1  -9 946.534 91.1281   7
  -2  -1   9 1083.10 89.5039   7
   2  -1  -9 1164.61 100.672   4
  -2  -1   9 1020.81 116.175   6
   2  -1  -9 902.085 104.062   1
  -2  -1   9 1146.56 92.1615   5
   2  -1  -9 1097.87 119.664   2
   2  -1  -9 1018.04 60.8492   3
  -2  -1   9 1080.07 109.772   4
   2  -1  -8 25756.8 460.380   1
   2  -1  -8 25470.1 493.355   2
   2  -1  -8 24801.5 287.368   3
  -2  -1   8 26003.6 501.364   6
  -2  -1   8 25942.3 450.309   4
  -2  -1   8 25350.5 412.866   2
  -2  -1   8 25333.0 400.182   5
   2  -1  -8 24988.5 410.836   7
  -2  -1   8 26024.6 381.613   7
   2  -1  -8 25325.8 380.584   5
   2  -1  -8 24782.2 404.744   4
   2  -1  -7 397.199 62.5819   7
  -2  -1   7 398.098 50.6476   7
   2  -1  -7 415.636 72.3134   2
   2  -1  -7 307.918 51.1267   4
   2  -1  -7 345.207 42.7884   3
  -2  -1   7 417.775 62.6220   2
   2  -1  -7 434.427 56.3967   5
  -2  -1   7 395.420 62.9300   4
  -2  -1   7 401.553 58.2040   5
  -2  -1   7 411.574 72.2641   6
  -2  -1   6 23776.7 368.667   4
  -2  -1   6 23646.9 336.375   2
   2  -1  -6 23126.8 414.482   2
   2  -1  -6 23144.4 340.371   5
   2  -1  -6 22800.6 279.845   3
  -2  -1   6 23846.5 356.760   5
  -2  -1   6 23677.7 412.497   6
  -2  -1   6 23943.8 298.965   7
   2  -1  -6 24253.3 349.965   7
  -2  -1   5 2677.02 105.748   2
   2  -1  -5 2627.12 113.177   7
   2  -1  -5 2369.68 111.492   5
  -2  -1   5 2567.00 128.975   6
   2  -1  -5 2476.11 134.559   2
  -2  -1   5 2498.89 117.048   5
   2  -1  -5 2546.55 96.3711   3
  -2  -1   4 53978.1 492.047   5
  -2  -1   4 54684.6 512.897   6
   2  -1  -4 48495.5 446.982   7
   2  -1  -4 54744.2 542.640   2
   2  -1  -4 54040.8 428.019   3
   2  -1  -4 53587.6 479.931   5
  -2  -1   3 59.0998 39.3805   6
   2  -1  -3 93.9863 43.5339   5
  -2  -1   3 107.223 43.1984   5
   2  -1  -3 120.152 39.5185   3
   2  -1  -3 32.5005 49.0447   2
  -2  -1   2 102031. 590.359   5
   2  -1  -2 97694.6 575.204   3
   2  -1  -2 99283.9 574.655   2
   2  -1  -1 3004.05 102.643   3
  -2  -1   1 2893.97 91.5801   7
  -2  -1   1 2913.65 96.4806   5
  -2  -1   1 2824.95 82.2287   1
   2  -1  -1 2792.21 85.3215   2
   2  -1   0 100479. 541.299   4
   2  -1   0 100203. 581.869   3
  -2  -1   0 99432.1 581.117   7
  -2  -1   0 99040.9 554.142   1
   2  -1   0 100858. 412.502   2
  -2  -1   0 98945.6 508.047   5
  -2  -1  -1 89.8811 45.3112   7
  -2  -1  -1 134.373 46.7235   2
   2  -1   1 97.1426 42.2701   3
   2  -1   1 114.333 34.2166   6
   2  -1   1 93.2652 39.3337   4
  -2  -1  -1 142.057 44.6416   1
  -2  -1  -1 93.3312 30.3338   5
   2  -1   2 55352.4 515.139   4
   2  -1   2 54169.3 439.415   3
  -2  -1  -2 54486.8 531.526   7
   2  -1   2 56001.3 318.096   2
  -2  -1  -2 53309.2 320.165   5
  -2  -1  -2 53198.0 508.872   2
   2  -1   2 54692.7 460.649   6
  -2  -1  -2 54135.9 516.330   1
   2  -1   3 2622.96 132.184   4
  -2  -1  -3 2572.02 130.841   7
  -2  -1  -3 2296.99 64.6742   5
   2  -1   3 2588.17 99.7855   3
   2  -1   3 2847.96 87.1929   2
  -2  -1  -3 2628.26 129.632   1
   2  -1   3 2947.54 126.554   6
  -2  -1  -3 2710.28 131.486   2
   2  -1   4 25996.5 404.440   6
  -2  -1  -4 26298.9 421.431   1
  -2  -1  -4 25665.6 428.231   7
   2  -1   4 26482.2 420.467   7
   2  -1   4 25682.3 425.266   4
   2  -1   4 25380.6 276.576   5
   2  -1   4 25634.4 345.504   1
  -2  -1  -4 26992.0 425.292   2
   2  -1   4 26034.3 302.563   2
   2  -1   4 25197.3 306.364   3
   2  -1   5 387.735 56.7624   1
  -2  -1  -5 364.582 67.9693   2
   2  -1   5 349.632 50.3248   2
   2  -1   5 395.369 67.1424   6
  -2  -1  -5 376.541 70.3140   1
   2  -1   5 409.969 41.8095   5
   2  -1   5 432.335 70.6776   4
  -2  -1  -5 443.067 72.8764   7
   2  -1   5 341.596 43.1257   3
   2  -1   5 507.044 72.8212   7
  -2  -1  -5 446.235 72.9639   4
  -2  -1  -6 25347.6 471.530   2
   2  -1   6 25062.3 373.374   2
   2  -1   6 25296.1 303.990   3
   2  -1   6 24851.5 464.891   7
  -2  -1  -6 25047.8 483.569   7
   2  -1   6 25160.3 474.098   6
  -2  -1  -6 25195.7 470.563   1
   2  -1   6 24514.2 392.951   1
  -2  -1  -6 24774.9 471.948   4
   2  -1   6 25624.2 486.104   4
   2  -1   6 24786.2 279.688   5
   2  -1   7 1129.03 115.884   7
   2  -1   7 1158.30 95.4728   2
   2  -1   7 1049.49 65.6055   3
  -2  -1  -7 1059.77 116.033   1
   2  -1   7 1163.79 120.864   6
  -2  -1  -7 1170.79 115.341   2
  -2  -1  -7 1090.93 115.949   7
  -2  -1  -7 909.552 108.670   4
   2  -1   7 1085.71 95.7857   1
   2  -1   7 1153.11 118.725   4
   2  -1   7 1092.46 64.0997   5
   2  -1   8 1739.81 126.418   2
  -2  -1  -8 1733.34 146.247   2
   2  -1   8 1886.46 130.935   1
  -2  -1  -8 1632.37 143.768   4
   2  -1   8 1835.76 162.356   6
  -2  -1  -8 1804.20 152.770   7
  -2  -1  -8 1609.75 142.277   1
   2  -1   8 1867.18 151.671   7
   2  -1   8 1665.65 150.135   4
   2  -1   8 1817.92 80.6391   5
   2  -1   9 1225.61 120.626   2
  -2  -1  -9 968.158 122.527   7
  -2  -1  -9 1024.92 128.864   2
   2  -1   9 1039.88 124.516   7
   2  -1   9 1103.79 62.6988   5
   2  -1   9 1097.81 117.638   1
  -2  -1  -9 846.252 111.357   1
  -2  -1  -9 1094.07 131.165   4
   2  -1  10 6275.60 255.598   2
   2  -1  10 5563.98 250.745   1
  -2  -1 -10 5230.14 281.646   4
   2  -1  10 5208.55 126.859   5
  -2  -1 -10 5723.87 291.002   7
   2  -1  11 25.5651 67.2451   1
   2  -1  11 29.9322 72.2906   2
  -2  -1 -11 89.9451 71.0760   4
   2  -1  11 42.9407 19.3748   5
  -2  -1 -11 54.1350 63.6099   7
   2  -1  12 3053.41 208.185   2
  -2  -1 -12 2960.84 232.848   7
   2  -1  13 1321.16 151.893   2
  -2  -1 -13 1525.23 183.465   7
   2  -1  14 714.561 127.078   2
   2  -1  15 1313.27 165.128   2
  -2   0  19 2794.14 271.498   2
   2   0 -18 1059.11 168.739   4
  -2   0  18 1069.70 178.560   2
   2   0 -17 727.141 134.823   4
  -2   0  17 1329.37 179.057   2
   2   0 -16 350.789 96.9589   4
  -2   0  16 383.041 117.153   2
   2   0 -15 98.3633 77.8710   4
  -2   0  15 375.615 109.682   2
   2   0 -14 3249.75 202.369   1
  -2   0  14 2833.74 207.300   7
  -2   0  14 2651.48 148.405   5
   2   0 -14 3096.54 155.392   5
  -2   0  14 3481.58 244.818   2
   2   0 -14 3083.40 217.024   4
  -2   0  13 237.804 86.3485   2
  -2   0  13 122.820 74.3890   7
   2   0 -13 277.777 81.7714   1
  -2   0  13 123.775 51.5631   5
   2   0 -13 132.885 70.8104   4
   2   0 -13 165.793 53.9963   5
   2   0 -12 6513.43 278.082   4
   2   0 -12 5203.34 116.269   3
  -2   0  12 6097.32 213.501   5
   2   0 -12 6588.75 258.330   1
  -2   0  12 6597.15 270.235   7
   2   0 -12 6673.75 223.950   5
  -2   0  12 6812.85 303.425   2
  -2   0  12 6613.06 285.951   4
   2   0 -12 6596.07 303.871   2
  -2   0  11 746.043 113.618   2
   2   0 -11 847.208 116.427   2
   2   0 -11 602.891 94.7473   4
   2   0 -11 669.554 78.5564   5
   2   0 -11 432.548 45.5367   3
  -2   0  11 733.801 97.2214   7
  -2   0  11 547.404 69.0450   5
  -2   0  11 745.395 104.410   4
   2   0 -11 883.671 96.9251   1
   2   0 -11 677.579 50.3420   3
   2   0 -10 34456.2 335.077   3
  -2   0  10 35144.7 598.656   2
   2   0 -10 34316.5 521.676   1
  -2   0  10 34183.1 647.029   6
   2   0 -10 33632.4 510.553   7
   2   0 -10 34530.3 473.268   5
   2   0 -10 34976.6 609.016   2
   2   0 -10 34231.0 552.642   4
  -2   0  10 34827.0 531.381   7
  -2   0  10 33273.4 461.245   5
  -2   0  10 33793.2 558.126   4
   2   0  -9 847.519 87.4618   1
  -2   0   9 875.329 88.7507   7
  -2   0   9 873.534 95.5050   4
  -2   0   9 835.859 102.827   2
   2   0  -9 924.576 86.6308   7
  -2   0   9 885.847 107.437   6
   2   0  -9 791.303 83.4181   4
  -2   0   9 874.344 78.5174   5
   2   0  -9 1001.50 111.166   2
   2   0  -9 816.626 76.4937   5
   2   0  -9 1009.35 60.5674   3
   2   0  -8 17736.2 314.487   7
   2   0  -8 17280.9 327.144   1
  -2   0   8 18109.8 325.083   7
   2   0  -8 17265.1 335.086   4
  -2   0   8 17437.7 378.296   2
   2   0  -8 17361.4 310.832   5
  -2   0   8 17227.9 307.230   5
  -2   0   8 17944.1 407.993   6
   2   0  -8 17513.3 379.750   2
  -2   0   8 17658.5 346.270   4
   2   0  -7 366.161 50.3190   7
  -2   0   7 402.631 59.9015   4
  -2   0   7 399.543 53.1103   7
   2   0  -7 487.216 62.6944   1
   2   0  -7 364.214 65.4153   2
   2   0  -7 414.445 53.1907   4
  -2   0   7 415.342 54.1445   5
   2   0  -7 407.872 55.8635   5
  -2   0   7 337.273 66.1264   6
  -2   0   7 336.875 64.9644   2
  -2   0   6 819.056 68.4836   4
   2   0  -6 891.462 85.8172   2
  -2   0   6 828.606 83.0486   6
  -2   0   6 879.003 64.4791   7
  -2   0   6 913.817 85.7081   2
   2   0  -6 945.870 71.4722   5
  -2   0   6 985.987 73.4628   5
   2   0  -6 885.019 64.6289   7
   2   0  -6 920.244 66.8590   4
   2   0  -5 952.055 60.9309   4
   2   0  -5 871.945 78.2485   2
  -2   0   5 951.633 80.5702   6
  -2   0   5 961.650 57.1794   7
  -2   0   5 987.087 64.9860   4
   2   0  -5 974.932 54.3942   7
   2   0  -5 969.001 70.4283   5
   2   0  -5 1109.09 82.7401   6
  -2   0   5 985.073 84.0392   2
  -2   0   5 903.495 68.3965   5
   2   0  -4 34505.7 233.897   7
   2   0  -4 33099.5 273.949   4
  -2   0   4 32858.7 279.753   4
   2   0  -4 33352.4 373.814   2
  -2   0   4 34497.7 243.146   7
  -2   0   4 34099.0 341.089   5
   2   0  -4 33373.7 356.613   6
  -2   0   4 33863.4 371.716   2
  -2   0   4 33939.4 366.078   6
   2   0  -4 34322.9 345.302   5
  -2   0   3 220.649 40.2873   2
   2   0  -3 124.917 31.1698   5
  -2   0   3 109.933 30.0260   5
   2   0  -3 145.259 19.5866   4
   2   0  -3 155.342 31.7727   6
   2   0  -3 161.568 38.8118   2
  -2   0   3 189.251 33.5143   6
  -2   0   2 13205.8 142.049   6
   2   0  -2 12674.6 179.648   2
  -2   0   2 13131.5 180.666   5
  -2   0   1 32.5456 18.0285   5
   2   0  -1 24.3209 13.4738   7
   2   0   0 13206.9 176.477   7
  -2   0   0 13442.8 147.007   5
  -2   0   0 12950.5 166.960   4
  -2   0   0 5962.49 119.539   7
   2   0   1 171.871 33.7142   7
  -2   0  -1 182.451 38.7380   7
   2   0   1 201.542 26.0637   3
   2   0   1 165.206 30.9919   2
   2   0   1 152.655 32.8523   4
  -2   0  -1 128.633 35.0575   4
  -2   0  -2 34597.0 336.664   2
   2   0   2 32926.4 242.430   3
   2   0   2 33358.1 356.622   1
   2   0   2 32798.2 378.107   7
   2   0   2 33005.9 330.216   2
  -2   0  -2 32653.2 370.493   4
  -2   0  -2 32348.5 375.397   7
   2   0   2 33439.5 379.168   4
   2   0   3 962.684 81.1482   4
   2   0   3 847.841 69.7602   2
  -2   0  -3 916.046 81.1596   7
   2   0   3 922.347 82.2174   7
   2   0   3 886.419 75.6174   1
  -2   0  -3 913.892 80.8875   4
   2   0   3 866.942 42.8955   3
  -2   0  -3 861.343 68.3137   2
   2   0   4 856.754 76.4779   2
  -2   0  -4 778.510 79.2258   4
  -2   0  -4 816.010 72.4418   2
   2   0   4 679.533 37.3529   3
   2   0   4 903.324 90.3738   4
  -2   0  -4 879.669 87.5857   7
   2   0   4 775.752 77.9681   1
  -2   0  -4 945.499 79.2813   1
   2   0   4 885.455 82.2498   6
   2   0   4 896.035 85.2353   7
  -2   0  -5 505.840 75.8035   4
   2   0   5 482.770 67.3665   6
  -2   0  -5 423.595 60.3055   2
   2   0   5 385.428 62.0265   2
   2   0   5 432.756 74.3599   4
  -2   0  -5 412.178 65.8597   7
   2   0   5 376.782 67.3269   7
   2   0   5 401.416 62.7693   1
  -2   0  -5 383.096 63.7632   1
   2   0   6 17561.8 398.649   4
   2   0   6 17980.6 406.872   6
   2   0   6 17765.3 359.043   2
   2   0   6 17556.5 362.239   1
   2   0   6 17342.6 385.203   7
  -2   0  -6 17292.5 386.932   7
  -2   0  -6 17954.0 362.065   1
  -2   0  -6 17097.3 389.506   4
  -2   0  -6 17617.4 352.275   2
  -2   0  -7 808.711 96.8241   4
   2   0   7 857.121 97.6622   1
  -2   0  -7 726.484 87.4078   1
   2   0   7 767.203 101.857   4
   2   0   7 930.830 105.450   7
  -2   0  -7 793.525 98.4198   7
  -2   0  -7 831.332 90.8396   2
   2   0   7 864.389 105.034   6
   2   0   7 806.612 97.0699   2
   2   0   8 35403.2 637.706   4
   2   0   8 35066.6 648.596   6
  -2   0  -8 32920.9 612.075   4
   2   0   8 35441.9 618.106   7
  -2   0  -8 35223.3 574.410   1
   2   0   8 34671.7 571.231   2
  -2   0  -8 34685.5 617.136   7
  -2   0  -8 36266.8 574.809   2
   2   0   8 35929.2 585.143   1
  -2   0  -9 573.449 96.6455   2
   2   0   9 862.307 116.004   1
   2   0   9 747.686 112.599   7
  -2   0  -9 683.786 109.480   4
   2   0   9 716.681 104.425   2
   2   0  10 6738.60 293.578   2
   2   0  10 6737.56 296.895   1
  -2   0 -10 6474.94 303.820   4
  -2   0 -10 6426.72 285.391   2
   2   0  11 281.086 94.6476   2
  -2   0 -11 186.187 83.8618   4
   2   0  12 3759.08 247.974   2
  -2   0 -12 3023.10 234.369   4
   2   0  13 119.632 87.8092   2
  -2   0 -13 271.853 107.322   4
   2   0  14 391.821 109.364   2
  -2   0 -14 521.034 134.574   4
  -2   0 -15 1177.99 178.270   4
   2   0  15 1029.44 163.897   2
  -2   0 -16 1045.92 171.479   4
   2   0  16 1031.72 172.574   2
   2   1 -20 598.065 142.214   4
  -2   1  20 623.674 183.805   2
   2   1 -19-79.4549 122.648   4
  -2   1  19 636.573 177.101   2
  -2   1  18 755.851 172.727   2
   2   1 -18 833.786 158.972   4
  -2   1  17 1247.08 191.457   2
   2   1 -17 1060.64 159.441   4
  -2   1  16 540.051 135.743   2
   2   1 -16 382.153 92.2989   4
  -2   1  15 1198.68 172.853   2
   2   1 -15 1489.68 171.105   4
   2   1 -14 2801.62 104.015   3
   2   1 -14 2215.92 102.035   3
  -2   1  14 3260.59 250.127   2
   2   1 -14 2590.30 209.221   4
   2   1 -14 2530.89 158.127   5
   2   1 -13 102.783 53.2948   5
   2   1 -13 37.6022 45.2229   1
   2   1 -13-0.26752 27.8924   3
  -2   1  13 123.351 81.4291   7
  -2   1  13 49.8656 86.6458   2
   2   1 -13 41.0061 62.3868   2
   2   1 -13-47.6798 74.4822   4
   2   1 -12 5236.52 201.449   1
  -2   1  12 5136.59 260.232   7
   2   1 -12 5372.00 259.196   4
   2   1 -12 5753.79 222.791   5
   2   1 -12 5131.36 166.460   3
  -2   1  12 5778.60 302.190   2
   2   1 -12 5206.36 253.321   2
  -2   1  12 5271.69 251.973   4
   2   1 -11 999.513 94.2128   5
   2   1 -11 1210.02 85.6485   3
   2   1 -11 1169.67 121.434   4
   2   1 -11 1195.24 96.7185   1
  -2   1  11 1211.38 144.228   2
   2   1 -11 1085.60 115.715   2
  -2   1  11 1090.99 118.263   4
  -2   1  11 1120.39 122.818   7
   2   1 -10 1729.70 136.598   4
  -2   1  10 1768.48 133.647   4
   2   1 -10 1840.24 104.771   1
  -2   1  10 1633.72 141.546   7
   2   1 -10 1638.99 114.609   5
   2   1 -10 1831.23 140.277   2
   2   1 -10 1388.81 143.933   6
   2   1 -10 1750.79 103.033   3
  -2   1  10 1798.56 161.459   6
  -2   1  10 1695.42 157.594   2
  -2   1   9 1165.62 102.316   4
  -2   1   9 979.404 84.6256   5
   2   1  -9 1082.62 90.5096   5
  -2   1   9 972.469 100.025   7
  -2   1   9 1125.88 124.586   2
   2   1  -9 1024.01 75.0834   1
   2   1  -9 1035.05 79.5870   3
   2   1  -9 975.497 115.785   6
  -2   1   9 1199.80 125.844   6
   2   1  -9 1130.56 104.105   2
   2   1  -9 1111.88 104.551   4
   2   1  -8 24584.1 354.001   3
  -2   1   8 24906.0 427.016   7
  -2   1   8 25422.0 409.934   4
   2   1  -8 24989.9 393.893   5
  -2   1   8 24691.5 488.165   2
   2   1  -8 25350.9 487.418   6
  -2   1   8 23500.5 374.243   5
   2   1  -8 25402.3 416.585   2
   2   1  -8 25000.3 434.360   4
  -2   1   8 24822.4 486.692   6
   2   1  -8 25336.2 311.130   1
   2   1  -7 421.655 63.4137   4
  -2   1   7 405.144 54.2012   4
  -2   1   7 339.694 63.7155   7
  -2   1   7 403.359 79.6780   2
  -2   1   7 334.143 67.0394   6
  -2   1   7 465.693 59.8016   5
   2   1  -7 371.197 73.0989   6
   2   1  -7 320.842 58.9783   2
   2   1  -7 423.813 42.6559   1
   2   1  -7 343.989 57.9965   5
   2   1  -6 25747.1 375.468   5
  -2   1   6 24120.3 371.836   7
   2   1  -6 26049.7 426.310   6
   2   1  -6 25827.5 375.718   4
  -2   1   6 25010.0 433.613   2
  -2   1   6 26121.2 336.077   4
   2   1  -6 25671.3 357.920   2
  -2   1   6 25296.2 357.604   5
   2   1  -6 26470.0 241.571   1
   2   1  -5 2731.81 115.896   4
  -2   1   5 2834.25 99.4750   3
  -2   1   5 2531.15 135.392   2
   2   1  -5 2515.45 64.1847   1
   2   1  -5 2614.85 128.522   6
  -2   1   5 2655.73 98.6053   4
   2   1  -5 2510.69 116.753   5
   2   1  -5 2734.77 109.293   2
  -2   1   5 2655.93 114.181   5
   2   1  -4 54149.4 456.770   4
  -2   1   4 53872.4 530.005   2
  -2   1   4 54391.6 423.065   3
   2   1  -4 54110.1 509.126   6
   2   1  -4 54529.4 423.035   2
  -2   1   4 54406.8 371.694   4
   2   1  -4 53305.8 480.182   5
  -2   1   3 118.723 50.6173   2
   2   1  -3 66.0726 38.5168   6
  -2   1   3 68.6404 34.2907   3
   2   1  -3 117.581 42.2619   5
  -2   1   2 98730.7 567.695   2
   2   1  -2 102163. 585.424   5
  -2   1   2 100622. 574.046   3
   2   1  -2 103389. 380.382   1
   2   1  -1 2861.50 81.2662   1
  -2   1   1 3010.47 87.8049   2
  -2   1   1 2858.12 101.119   3
   2   1  -1 2959.43 97.5853   5
  -2   1   1 2674.64 79.8093   4
  -2   1   0 101460. 543.784   4
   2   1   0 98876.7 593.101   7
   2   1   0 96225.3 550.589   1
  -2   1   0 96192.8 414.045   6
  -2   1   0 102180. 591.942   3
   2   1   0 100055. 515.208   5
   2   1   0 100044. 570.344   2
   2   1   1 57.7190 47.3689   1
  -2   1  -1 141.009 44.3104   4
  -2   1  -1 84.9578 34.1740   6
   2   1   1 123.235 52.3729   7
   2   1   1 76.5264 42.8606   2
  -2   1  -1 126.373 38.6915   3
   2   1   2 54066.5 511.681   2
  -2   1  -2 52309.7 507.061   4
   2   1   2 54305.3 516.379   1
  -2   1  -2 54300.9 459.334   6
   2   1   2 55210.7 534.991   7
   2   1   2 54887.1 529.036   4
  -2   1  -2 55403.8 441.532   3
   2   1   3 2797.80 133.800   4
   2   1   3 2577.39 133.912   7
  -2   1  -3 2649.75 84.0266   2
  -2   1  -3 2848.84 134.043   4
  -2   1  -3 2665.01 102.779   3
   2   1   3 2459.45 132.456   1
  -2   1  -3 2623.17 119.701   6
   2   1   3 2440.16 129.623   2
  -2   1  -4 23472.8 409.696   4
   2   1   4 23545.7 414.253   7
  -2   1  -4 23403.4 280.770   2
   2   1   4 23064.3 398.798   4
   2   1   4 22867.1 397.003   1
   2   1   4 23107.2 393.959   2
  -2   1  -4 23403.3 388.512   6
  -2   1  -4 23320.4 294.756   3
  -2   1  -5 400.372 49.1719   2
   2   1   5 363.112 69.9189   1
   2   1   5 556.110 78.1467   4
  -2   1  -5 401.219 69.6892   4
   2   1   5 281.289 66.6025   2
  -2   1  -5 395.289 47.3080   3
  -2   1  -5 430.634 69.9604   6
   2   1   5 412.604 76.8124   7
   2   1   6 25020.7 475.062   1
  -2   1  -6 26148.9 370.881   2
   2   1   6 25812.0 482.320   4
   2   1   6 25066.0 474.887   2
  -2   1  -6 24618.4 478.296   4
   2   1   6 25863.8 491.866   7
  -2   1  -6 25427.7 312.695   3
   2   1   7 1163.01 118.615   7
   2   1   7 974.139 110.498   4
  -2   1  -7 1247.15 123.989   4
   2   1   7 993.817 111.423   1
  -2   1  -7 1081.38 90.1719   2
   2   1   7 799.782 105.069   2
  -2   1  -7 1056.18 67.2834   3
  -2   1  -8 1667.11 119.578   2
   2   1   8 1788.04 155.337   4
  -2   1  -8 1499.89 77.0778   3
   2   1   8 1691.07 153.201   7
   2   1   8 1915.16 161.092   1
  -2   1  -8 1769.91 149.536   4
   2   1   8 1682.94 149.234   2
  -2   1  -9 986.716 99.1900   2
  -2   1  -9 1063.57 60.1332   3
  -2   1  -9 1028.89 131.940   4
   2   1   9 1136.61 135.135   2
   2   1  10 6552.44 311.143   2
  -2   1 -10 6230.07 303.983   4
  -2   1 -10 5866.07 241.244   2
  -2   1 -11 88.3026 82.8312   4
  -2   1 -11 75.6752 52.9402   2
   2   1  11 96.0208 81.4859   2
  -2   1 -12 2811.92 232.627   4
  -2   1 -12 3127.85 198.821   2
   2   1  12 3387.73 246.770   2
  -2   1 -13 1585.72 187.614   4
   2   1  13 1744.67 193.050   2
   2   1  14 635.513 145.941   2
  -2   1 -14 583.390 140.996   4
   2   1  15 1221.71 178.645   2
  -2   1 -15 1114.97 180.058   4
   2   1  16 983.386 182.449   2
  -2   1 -16 549.774 145.994   4
  -2   1 -17 427.728 143.318   4
   2   1  17 551.397 148.976   2
  -2   2  19 1144.12 213.573   2
   2   2 -19 1092.34 180.263   4
  -2   2  18 354.339 137.951   2
   2   2 -18 127.748 90.2402   4
   2   2 -17 581.216 138.210   4
  -2   2  17 913.432 184.546   2
  -2   2  16 2992.51 275.953   2
   2   2 -16 3011.39 248.074   4
  -2   2  15 1804.14 217.192   2
   2   2 -15 1667.89 187.635   4
   2   2 -14 1392.07 165.081   4
   2   2 -14 1454.95 139.011   2
  -2   2  14 1354.12 180.018   2
   2   2 -13 1714.22 122.956   3
   2   2 -13 1503.86 160.355   4
  -2   2  13 1524.90 182.369   2
   2   2 -13 1564.86 181.380   6
   2   2 -13 1430.94 130.636   2
  -2   2  12 1084.41 158.471   2
   2   2 -12 969.016 107.480   2
   2   2 -12 1256.15 142.301   4
  -2   2  12 971.586 118.657   4
   2   2 -12 907.086 145.812   6
   2   2 -12 861.074 92.9884   3
  -2   2  11 862.880 133.838   2
   2   2 -11 962.023 123.047   4
   2   2 -11 814.435 90.2274   3
  -2   2  11 757.678 104.934   4
   2   2 -11 848.122 97.7516   2
   2   2 -11 890.833 101.462   5
   2   2 -11 658.121 114.535   6
  -2   2  10 9399.67 302.288   4
   2   2 -10 9387.76 356.602   6
   2   2 -10 9748.42 275.404   2
   2   2 -10 10070.1 281.178   3
  -2   2  10 10027.8 380.206   2
   2   2 -10 9687.16 298.204   5
   2   2 -10 9747.27 330.350   4
  -2   2   9 805.651 91.7929   4
   2   2  -9 946.643 97.3814   5
   2   2  -9 757.248 87.5716   3
  -2   2   9 781.599 117.772   2
   2   2  -9 964.754 90.3223   2
   2   2  -9 825.460 96.3178   4
   2   2  -9 755.418 108.947   6
   2   2  -8 1653.76 126.252   4
  -2   2   8 1493.28 144.535   2
   2   2  -8 1478.95 113.243   5
  -2   2   8 1470.89 87.6506   3
   2   2  -8 1333.59 126.545   6
  -2   2   8 1513.19 109.600   4
   2   2  -8 1447.78 99.6905   2
   2   2  -8 1505.15 112.539   3
  -2   2   7 379.625 62.8746   4
   2   2  -7 329.476 52.2037   2
  -2   2   7 231.605 74.4914   2
   2   2  -7 354.891 61.7631   3
   2   2  -7 284.180 61.7672   5
   2   2  -7 284.184 62.4754   6
  -2   2   7 400.333 54.0643   3
   2   2  -7 402.268 69.2002   4
  -2   2   6 35910.0 420.272   3
   2   2  -6 35471.3 507.142   4
   2   2  -6 36662.1 494.597   3
   2   2  -6 35754.5 504.057   5
  -2   2   6 35076.1 558.141   2
   2   2  -6 35528.8 540.536   6
   2   2  -6 35186.1 385.373   2
  -2   2   6 35445.2 449.964   4
   2   2  -5 812.714 80.8358   3
  -2   2   5 680.396 85.7849   2
   2   2  -5 793.768 59.3599   2
  -2   2   5 851.977 75.2597   3
   2   2  -5 816.634 83.3307   4
   2   2  -5 678.474 81.2007   6
   2   2  -5 804.061 83.7407   5
  -2   2   4 97127.2 806.329   2
   2   2  -4 105848. 792.660   3
   2   2  -4 99815.5 788.487   6
   2   2  -4 106356. 797.558   5
  -2   2   4 101450. 730.439   3
   2   2  -3 766.071 76.5500   5
  -2   2   3 675.710 73.4190   2
  -2   2   3 824.853 75.1492   3
   2   2  -3 624.294 72.4686   3
   2   2  -2 5776.99 178.063   5
  -2   2   2 5641.18 178.165   3
   2   2  -2 5546.92 179.785   3
  -2   2   2 5648.12 163.590   2
   2   2  -1 668.987 61.0113   2
  -2   2   1 580.250 55.4028   2
   2   2  -1 575.874 68.4669   3
  -2   2   1 635.838 71.5592   3
   2   2   0 5842.42 169.260   1
   2   2   0 5820.68 168.470   2
   2   2   0 5931.58 174.538   3
  -2   2   0 5999.38 121.265   2
  -2   2   0 5866.57 182.227   3
  -2   2  -1 750.225 65.4918   6
  -2   2  -1 744.921 77.5854   4
   2   2   1 695.774 72.2887   2
   2   2   1 751.617 80.1939   1
   2   2   1 812.018 73.0464   3
  -2   2  -1 796.335 75.9345   3
  -2   2  -2 100378. 797.838   4
   2   2   2 102798. 806.606   2
   2   2   2 101253. 810.862   1
   2   2   2 102230. 678.920   3
  -2   2  -2 101065. 717.500   6
   2   2   2 101393. 856.650   7
  -2   2  -2 104662. 780.834   3
   2   2   3 740.334 63.1011   3
   2   2   3 719.544 88.8249   7
  -2   2  -3 841.666 89.6711   4
   2   2   3 850.909 88.5674   2
  -2   2  -3 888.089 80.8582   3
   2   2   3 772.151 90.5011   1
  -2   2  -3 824.876 80.0346   6
   2   2   4 39379.6 572.647   2
   2   2   4 39662.1 595.792   7
   2   2   4 37938.9 387.200   3
  -2   2  -4 38678.9 566.136   4
  -2   2  -4 39907.2 499.331   3
   2   2   4 37883.7 573.964   1
  -2   2  -4 39391.7 531.648   6
   2   2   4 39104.6 570.688   4
  -2   2  -5 403.781 72.3058   6
  -2   2  -5 286.787 55.5942   3
  -2   2  -5 414.945 80.1682   4
   2   2   5 247.481 72.1074   7
   2   2   5 365.013 73.5512   2
   2   2   5 366.439 82.3144   1
   2   2   5 295.636 40.3345   3
   2   2   5 390.972 71.6689   4
   2   2   6 1097.11 124.113   7
  -2   2  -6 1380.72 100.764   3
   2   2   6 1475.70 130.565   4
  -2   2  -6 1311.03 68.4019   2
  -2   2  -6 1173.42 118.482   4
   2   2   6 1277.33 129.549   2
   2   2   6 1115.04 62.4484   3
  -2   2  -6 1034.67 112.397   6
   2   2   7 976.256 125.392   7
   2   2   7 917.800 120.818   2
  -2   2  -7 814.886 110.364   6
  -2   2  -7 900.117 82.5708   3
  -2   2  -7 1024.44 70.9356   2
  -2   2  -7 842.438 109.615   4
   2   2   7 813.212 108.440   4
   2   2   7 600.005 40.8599   3
  -2   2  -8 10109.0 364.122   4
   2   2   8 10329.6 359.509   4
  -2   2  -8 11034.3 241.092   2
   2   2   8 9555.65 372.892   7
  -2   2  -8 10480.6 368.710   6
   2   2   8 10443.3 373.540   2
  -2   2  -8 10760.9 269.838   3
  -2   2  -9 834.004 129.767   4
  -2   2  -9 844.196 79.1277   2
   2   2   9 1084.88 145.179   2
  -2   2  -9 894.563 89.4886   3
  -2   2 -10 1143.40 146.696   4
  -2   2 -10 1058.77 89.6595   3
   2   2  10 1210.95 162.428   2
  -2   2 -10 926.550 87.8075   2
  -2   2 -11 1395.91 164.267   4
  -2   2 -11 1578.55 101.464   3
   2   2  11 1368.49 172.057   2
  -2   2 -11 1634.99 122.717   2
   2   2  12 1406.91 182.421   2
  -2   2 -12 1219.50 161.222   4
   2   2  13 1315.14 182.952   2
  -2   2 -13 1729.32 197.790   4
  -2   2 -14 2942.91 263.926   4
   2   2  14 3088.80 275.555   2
  -2   2 -15 764.319 156.699   4
   2   2  15 845.113 184.921   2
   2   2  16-53.5669 108.967   2
  -2   2 -16-110.165 106.783   4
   2   2  17 848.294 178.505   2
   2   3 -19 194.711 126.331   4
   2   3 -18 417.329 132.957   4
  -2   3  18 47.0667 116.265   2
   2   3 -17 314.101 117.644   4
  -2   3  17 438.732 159.119   2
   2   3 -16-127.039 100.299   4
  -2   3  16 276.338 141.159   2
   2   3 -15 2497.82 230.325   4
  -2   3  15 2644.91 266.147   2
   2   3 -15 2642.37 259.045   6
   2   3 -14 7213.74 365.308   4
  -2   3  14 7098.01 398.319   2
   2   3 -14 6918.92 388.576   6
  -2   3  13 272.839 110.220   2
   2   3 -13 349.912 70.6128   2
   2   3 -13 513.542 118.565   6
   2   3 -13 349.528 76.7319   3
   2   3 -13 528.252 113.349   4
   2   3 -12 4067.73 178.571   2
   2   3 -12 3994.94 250.578   4
   2   3 -12 4192.42 279.035   6
  -2   3  12 4091.21 286.504   2
   2   3 -12 3944.51 214.269   3
  -2   3  11 355.087 54.7340   3
  -2   3  11 489.181 125.603   2
   2   3 -11 498.542 113.034   6
   2   3 -11 417.115 81.8160   3
   2   3 -11 339.073 63.5368   2
   2   3 -11 363.029 91.8337   4
  -2   3  11 307.427 80.8660   4
   2   3 -10 1004.63 128.330   4
   2   3 -10 971.830 84.9246   2
   2   3 -10 939.740 134.000   6
  -2   3  10 892.704 112.956   4
  -2   3  10 800.824 141.880   2
  -2   3  10 812.196 79.5732   3
   2   3 -10 963.954 109.434   3
   2   3  -9 543.418 62.7650   2
  -2   3   9 868.006 132.162   2
  -2   3   9 495.504 86.3609   4
   2   3  -9 612.459 95.2990   3
   2   3  -9 544.667 91.8392   4
   2   3  -9 511.875 98.4029   6
  -2   3   9 550.333 72.3942   3
   2   3  -8 11383.8 333.713   3
   2   3  -8 11855.8 359.166   4
  -2   3   8 11211.9 280.961   3
   2   3  -8 11292.2 370.199   6
  -2   3   8 11535.4 321.486   4
  -2   3   8 11440.5 389.085   2
   2   3  -8 11427.2 234.127   2
   2   3  -7 642.891 59.5995   2
   2   3  -7 704.517 95.9291   3
  -2   3   7 486.779 92.3011   2
   2   3  -7 600.254 87.5569   4
   2   3  -7 537.934 93.3552   6
  -2   3   7 543.255 68.8077   3
   2   3  -6 42223.4 628.639   4
   2   3  -6 41930.4 393.003   2
  -2   3   6 41922.3 552.151   3
   2   3  -6 41476.3 635.600   6
   2   3  -6 43174.6 629.579   3
  -2   3   6 41760.3 658.130   2
   2   3  -5 1474.02 122.127   3
  -2   3   5 1362.80 123.108   2
   2   3  -5 1575.69 124.236   6
  -2   3   5 1570.42 112.801   3
  -2   3   4 61.3378 54.1554   2
   2   3  -4 53.3220 54.8818   3
  -2   3   4 62.4284 46.0055   3
   2   3  -4 102.498 50.5071   6
   2   3  -3 315.836 45.8781   2
  -2   3   3 348.245 65.0274   3
   2   3  -3 358.816 71.7568   3
  -2   3   3 433.608 69.7655   2
   2   3  -2 1637.03 93.1444   2
  -2   3   2 1548.22 115.244   3
  -2   3   2 1570.70 102.941   2
   2   3  -2 1653.50 119.944   3
   2   3  -1 993.053 81.0715   2
  -2   3   1 911.863 77.1744   2
  -2   3   1 834.219 91.9985   3
   2   3  -1 901.473 92.7777   3
   2   3   0 1683.66 117.141   3
   2   3   0 1630.53 105.415   2
  -2   3   0 1748.84 122.180   3
  -2   3   0 1748.72 84.7777   2
   2   3   1 455.787 70.3234   3
  -2   3  -1 443.046 73.7243   4
   2   3   1 397.900 65.0265   2
  -2   3  -1 438.713 38.9710   2
  -2   3  -1 497.887 76.2918   3
  -2   3  -1 487.748 64.5572   6
   2   3   2 52.5959 47.4084   3
  -2   3  -2 61.6037 48.3016   4
  -2   3  -2 18.5877 45.2765   3
   2   3   2 43.1603 54.9565   2
  -2   3  -2 154.148 48.5416   6
   2   3   3 1449.30 126.250   2
  -2   3  -3 1463.96 112.289   6
   2   3   3 1445.28 104.372   3
  -2   3  -3 1274.04 110.559   3
  -2   3  -3 1389.07 121.672   4
  -2   3  -4 42136.1 645.568   4
   2   3   4 40989.7 641.686   2
  -2   3  -4 42205.7 600.944   6
   2   3   4 42214.3 521.482   3
  -2   3  -4 44054.2 622.844   3
  -2   3  -5 608.331 96.8248   4
  -2   3  -5 670.801 86.7596   3
   2   3   5 645.274 69.8760   3
   2   3   5 444.914 87.6785   2
  -2   3  -5 671.336 92.9930   6
   2   3   6 12481.3 268.061   3
   2   3   6 12527.3 387.083   4
   2   3   6 12454.6 398.468   2
  -2   3  -6 12070.3 364.454   6
  -2   3  -6 12275.4 387.236   4
  -2   3  -6 13049.2 346.882   3
   2   3   7 734.446 113.969   4
   2   3   7 550.658 60.9717   3
  -2   3  -7 748.715 109.978   6
  -2   3  -7 719.404 116.259   4
  -2   3  -7 541.728 83.2361   3
   2   3   7 644.081 111.565   2
  -2   3  -8 923.153 135.280   4
  -2   3  -8 1142.94 115.242   3
   2   3   8 898.738 68.2837   3
   2   3   8 751.051 132.123   2
  -2   3  -8 890.182 124.065   6
  -2   3  -9 566.044 110.645   6
   2   3   9 420.780 129.067   2
  -2   3  -9 351.716 102.984   4
  -2   3  -9 472.108 85.2135   3
   2   3   9 267.600 35.3331   3
   2   3  10 3661.56 263.014   2
  -2   3 -10 3232.58 242.773   6
  -2   3 -10 3795.48 195.576   3
  -2   3 -10 3524.94 252.923   4
  -2   3 -11 335.453 108.369   4
  -2   3 -11 534.289 120.525   6
   2   3  11 318.988 122.633   2
  -2   3 -11 461.018 81.6885   3
   2   3  12 6615.90 382.382   2
  -2   3 -12 6404.13 363.498   4
  -2   3 -13 2433.96 242.257   4
   2   3  13 3037.10 281.232   2
  -2   3 -14 39.6343 87.0407   4
   2   3  14 60.0292 119.028   2
  -2   3 -15 347.415 108.103   4
   2   3  15 441.486 146.215   2
   2   3  16 513.366 175.799   2
  -2   3 -16 935.951 183.509   4
   2   4 -18 266.007 135.036   4
   2   4 -17 430.064 140.439   4
  -2   4  17 561.236 167.040   2
  -2   4  16 1206.52 212.319   2
   2   4 -16 1151.42 179.360   4
   2   4 -16 1310.32 208.562   6
   2   4 -15 658.342 155.921   6
   2   4 -15 681.236 140.212   4
  -2   4  15 815.119 174.007   2
   2   4 -14 1228.94 174.241   4
  -2   4  14 1262.96 201.328   2
   2   4 -14 1385.75 196.135   6
  -2   4  13 2158.01 240.192   2
   2   4 -13 1882.47 194.005   4
   2   4 -13 1833.03 206.075   6
   2   4 -12 2677.16 222.253   4
  -2   4  12 2596.02 252.259   2
   2   4 -12 2427.03 227.324   6
  -2   4  11 770.503 90.2881   3
  -2   4  11 799.435 152.045   2
   2   4 -11 761.619 125.752   4
   2   4 -11 819.966 139.598   6
   2   4 -11 570.646 56.2756   2
  -2   4  10 3445.08 212.948   4
   2   4 -10 3562.55 248.647   6
   2   4 -10 3342.49 121.154   2
   2   4 -10 3737.42 231.155   3
   2   4 -10 3814.75 250.365   4
  -2   4  10 3510.76 181.037   3
  -2   4  10 3751.35 277.509   2
   2   4  -9 275.418 93.2103   6
   2   4  -9 170.844 78.6662   3
  -2   4   9 484.301 93.1226   4
   2   4  -9 160.902 37.7496   2
  -2   4   9 151.932 51.9911   3
  -2   4   9 168.205 98.9015   2
   2   4  -9 188.797 80.6702   4
   2   4  -8 5463.53 271.383   4
   2   4  -8 5645.14 270.628   3
   2   4  -8 5262.62 143.421   2
  -2   4   8 5452.19 292.742   2
   2   4  -8 5394.15 277.164   6
  -2   4   8 5239.47 226.558   3
   2   4  -7 1577.73 79.7371   2
   2   4  -7 1357.03 148.182   4
   2   4  -7 1564.58 148.955   6
  -2   4   7 1491.20 126.930   3
   2   4  -7 1574.79 146.877   3
   2   4  -7 1382.47 75.5865   2
  -2   4   7 1618.68 161.391   2
  -2   4   6 22509.5 523.500   2
  -2   4   6 22754.1 470.644   3
   2   4  -6 22529.7 294.745   2
   2   4  -6 22534.8 512.674   6
   2   4  -6 23996.3 532.362   3
   2   4  -6 22727.7 513.340   4
   2   4  -5 1877.74 149.502   6
  -2   4   5 1744.78 151.758   2
  -2   4   5 1802.71 138.599   3
   2   4  -5 1750.66 88.4051   2
   2   4  -5 1814.84 147.930   3
   2   4  -4 29468.6 375.553   2
   2   4  -4 30461.3 580.393   3
   2   4  -4 29150.0 552.398   6
  -2   4   4 30702.5 551.208   3
  -2   4   4 29874.3 542.880   2
  -2   4   3 410.115 81.2361   3
   2   4  -3 398.000 83.6788   3
  -2   4   3 433.269 76.5956   2
   2   4  -3 441.431 60.6353   2
   2   4  -2 5351.84 187.066   2
   2   4  -2 5923.10 250.224   3
  -2   4   2 5954.78 213.772   2
  -2   4   2 5945.96 248.533   3
  -2   4   1-27.1316 41.9717   2
   2   4  -1-3.89554 53.4602   3
  -2   4   1 14.8948 51.2200   3
   2   4  -1 97.7509 47.8994   2
   2   4   0 5983.95 219.170   2
   2   4   0 6337.46 254.079   3
  -2   4   0 6041.24 181.330   2
  -2   4   0 6221.84 261.196   3
   2   4   1 533.988 85.8615   2
   2   4   1 421.679 80.0327   3
  -2   4  -1 478.608 50.5347   2
  -2   4  -1 560.187 89.3407   3
  -2   4  -2 30567.2 579.466   3
  -2   4  -2 29818.3 560.949   4
   2   4   2 30753.7 539.235   3
  -2   4  -2 28703.1 267.948   2
   2   4   2 29770.4 537.614   2
  -2   4  -2 29619.1 515.579   6
   2   4   3 1880.69 154.810   2
   2   4   3 2043.10 143.412   3
  -2   4  -3 1914.68 152.321   3
  -2   4  -3 1936.79 155.395   4
  -2   4  -3 1889.82 139.839   6
   2   4   4 21913.7 443.833   3
  -2   4  -4 22431.8 521.270   4
   2   4   4 20998.5 504.191   2
  -2   4  -4 21690.0 476.324   6
  -2   4  -4 22572.9 510.218   3
  -2   4  -5 1571.51 155.099   4
  -2   4  -5 1402.09 144.267   3
   2   4   5 1413.75 154.478   2
   2   4   5 1385.13 119.543   3
  -2   4  -5 1464.60 138.344   6
  -2   4  -6 5694.52 283.217   4
  -2   4  -6 5695.65 273.003   6
   2   4   6 5253.21 281.976   2
   2   4   6 5283.05 218.832   3
  -2   4  -6 5701.20 265.830   3
  -2   4  -7 97.8355 67.3686   6
  -2   4  -7 149.145 63.4999   3
  -2   4  -7 134.459 89.5522   4
   2   4   7 167.252 56.6523   3
   2   4   7 158.379 98.8990   2
   2   4   8 3099.33 156.674   3
  -2   4  -8 3198.52 233.857   4
  -2   4  -8 3364.46 209.137   3
  -2   4  -8 2767.97 211.873   6
   2   4   8 3321.87 251.535   2
   2   4   9 688.036 73.8876   3
  -2   4  -9 746.178 133.202   6
  -2   4  -9 819.143 107.630   3
  -2   4  -9 585.803 114.289   4
   2   4   9 594.236 128.480   2
  -2   4 -10 2762.05 239.875   4
   2   4  10 2920.91 259.744   2
  -2   4 -10 2739.55 233.954   6
  -2   4 -10 2597.36 189.888   3
  -2   4 -11 1821.77 204.510   4
   2   4  11 1605.76 201.278   2
  -2   4 -11 1613.24 196.980   6
   2   4  12 1428.09 206.068   2
  -2   4 -12 1310.66 193.265   4
  -2   4 -12 1251.63 185.452   6
  -2   4 -13 606.716 144.511   4
   2   4  13 742.580 163.466   2
   2   4  14 1492.38 232.755   2
  -2   4 -14 1446.82 206.388   4
  -2   4 -15 163.500 102.302   4
   2   4  15 545.937 178.676   2
   2   5 -16-79.9801 104.178   4
   2   5 -15 836.163 151.842   4
  -2   5  15 1159.79 204.653   2
   2   5 -15 974.240 190.855   6
  -2   5  14 1725.18 233.997   2
   2   5 -14 1424.69 198.847   4
   2   5 -14 1556.64 211.792   6
   2   5 -13 382.407 137.995   6
   2   5 -13 400.329 120.008   4
  -2   5  13 430.551 141.038   2
   2   5 -12 4101.80 296.166   4
   2   5 -12 4036.22 299.335   6
  -2   5  12 3622.12 309.653   2
  -2   5  11 891.339 109.434   3
  -2   5  11 939.633 176.010   2
   2   5 -11 915.226 145.048   4
   2   5 -11 1025.46 158.951   6
  -2   5  10 26.6139 109.567   2
  -2   5  10 96.8162 55.5001   3
   2   5 -10 211.738 94.1993   6
   2   5 -10 10.1913 74.5919   4
   2   5  -9 367.641 100.830   6
   2   5  -9 414.090 115.224   4
  -2   5   9 416.282 121.157   2
   2   5  -9 356.930 29.9943   2
  -2   5   9 534.675 101.484   3
   2   5  -8 12503.8 444.647   6
  -2   5   8 11260.7 441.572   2
   2   5  -8 12582.1 452.153   4
   2   5  -8 10750.8 179.824   2
  -2   5   8 11551.9 379.055   3
   2   5  -8 10185.1 177.101   2
   2   5  -7 1080.80 139.133   6
   2   5  -7 1474.19 160.495   4
  -2   5   7 1234.03 158.968   2
   2   5  -7 1209.83 69.6885   2
   2   5  -7 1127.20 70.4651   2
  -2   5   7 979.250 118.007   3
   2   5  -6 9976.49 376.474   6
   2   5  -6 10416.6 219.672   2
   2   5  -6 9963.77 383.573   4
  -2   5   6 10327.7 385.455   2
  -2   5   6 9809.11 352.093   3
  -2   5   5 1277.41 142.531   2
   2   5  -5 1368.52 89.4981   2
   2   5  -5 1437.26 148.154   6
  -2   5   5 1472.76 146.188   3
   2   5  -4 4506.89 171.694   2
  -2   5   4 3641.62 217.550   2
  -2   5   4 4480.18 238.936   3
  -2   5   3 1027.28 120.388   2
  -2   5   3 1219.90 134.905   3
   2   5  -3 1030.10 94.4676   2
   2   5  -2 20633.0 404.953   2
  -2   5   2 20835.6 439.902   2
  -2   5   2 21182.8 525.615   3
  -2   5   1-27.2196 55.7631   2
   2   5  -1-14.3253 67.9927   3
   2   5  -1 58.5692 55.3889   2
   2   5   0 21630.8 526.382   3
  -2   5   0 20704.4 379.075   2
   2   5   0 20641.1 450.064   2
   2   5   1 955.714 115.844   2
   2   5   1 918.449 119.906   3
  -2   5  -1 936.505 78.9102   2
  -2   5  -2 4638.97 135.913   2
   2   5   2 4264.16 232.826   2
  -2   5  -2 4225.74 239.212   4
   2   5   2 4666.09 243.465   3
  -2   5  -2 4293.31 225.331   6
   2   5   3 1455.89 152.697   2
  -2   5  -3 1596.64 154.783   4
  -2   5  -3 1218.97 129.538   6
   2   5   3 1573.54 144.869   3
  -2   5  -4 11305.2 405.152   4
   2   5   4 11074.3 365.763   3
  -2   5  -4 10640.4 367.628   6
   2   5   4 9983.13 379.393   2
  -2   5  -5 1306.27 157.920   4
  -2   5  -5 1339.57 146.221   6
   2   5   5 1395.67 139.503   3
   2   5   5 1495.54 167.392   2
  -2   5  -6 10885.1 427.050   4
   2   5   6 10374.6 344.961   3
   2   5   6 10515.1 420.559   2
  -2   5  -6 11011.8 401.023   6
  -2   5  -7 595.984 115.872   4
   2   5   7 397.752 90.0026   3
   2   5   7 524.720 117.025   2
  -2   5  -7 573.665 100.685   6
  -2   5  -8 51.4664 78.2145   4
   2   5   8 49.9764 55.2855   3
   2   5   8-33.9872 84.5593   2
  -2   5  -8 85.1044 66.1462   6
  -2   5  -9 960.124 151.896   6
  -2   5  -9 967.504 156.879   4
   2   5   9 1043.81 176.923   2
  -2   5 -10 4453.54 315.703   4
  -2   5 -10 4110.57 294.020   6
   2   5  10 4341.36 323.733   2
  -2   5 -11 377.469 131.007   4
  -2   5 -11 326.528 115.131   6
   2   5  11 253.775 132.895   2
  -2   5 -12 1573.22 219.132   4
  -2   5 -12 1823.04 227.288   6
   2   5  12 1743.19 245.168   2
  -2   5 -13 1389.91 205.330   4
  -2   5 -13 772.331 174.663   6
   2   5  13 863.733 200.860   2
  -2   5 -14 0.36894 98.2453   6
  -2   5 -14 390.069 141.743   4
   2   6 -15 200.647 106.152   4
  -2   6  14 521.698 164.875   2
   2   6 -14 570.707 146.148   4
   2   6 -14 576.652 151.509   6
   2   6 -13 295.560 123.712   4
   2   6 -13 265.676 114.142   6
  -2   6  13 317.293 138.611   2
  -2   6  12 762.204 166.735   2
   2   6 -12 839.309 161.417   6
   2   6 -12 1213.01 190.015   4
   2   6 -11 393.509 120.326   4
   2   6 -11 503.284 117.630   6
  -2   6  11 372.024 126.215   2
  -2   6  10 12437.0 530.822   2
   2   6 -10 12283.4 512.027   4
   2   6 -10 12462.8 508.113   6
   2   6  -9 265.118 96.4029   6
  -2   6   9 273.891 122.101   2
   2   6  -9 300.912 109.385   4
   2   6  -8 1675.21 192.409   4
   2   6  -8 1516.82 175.734   6
  -2   6   8 1594.18 194.682   2
   2   6  -7 501.347 51.2996   2
   2   6  -7 590.948 125.220   6
  -2   6   7 430.794 121.681   2
   2   6  -7 683.496 129.133   4
   2   6  -7 528.260 48.5364   2
   2   6  -6 1004.25 77.6730   2
  -2   6   6 1117.52 152.527   2
   2   6  -6 1010.18 146.432   6
   2   6  -5 242.764 95.5170   6
   2   6  -5 187.039 57.5028   2
  -2   6   5 112.213 80.8908   2
  -2   6   4 13361.2 425.889   2
   2   6  -4 13595.2 321.690   2
  -2   6   3 213.799 87.2800   2
   2   6  -3 72.9811 52.4661   2
   2   6  -2 5691.70 235.215   2
  -2   6   2 5577.38 255.013   2
  -2   6   1 1904.22 146.398   2
   2   6  -1 1996.45 152.165   2
  -2   6   0 5243.15 216.134   2
   2   6   0 5334.16 251.612   2
   2   6   1 110.048 68.6330   2
  -2   6  -1 140.093 52.9643   2
  -2   6  -2 13843.8 441.720   6
  -2   6  -2 13125.6 461.152   4
   2   6   2 12606.5 423.499   2
  -2   6  -2 12966.5 260.522   2
  -2   6  -3 180.368 82.7822   6
  -2   6  -3 216.453 95.5219   4
   2   6   3 327.543 110.487   2
  -2   6  -3 184.112 29.5768   2
  -2   6  -4 752.466 119.624   6
  -2   6  -4 803.957 135.112   4
   2   6   4 703.648 130.455   2
   2   6   5 451.705 116.460   2
  -2   6  -5 606.635 123.120   4
  -2   6  -5 556.105 110.103   6
  -2   6  -6 1499.44 184.552   4
   2   6   6 1221.71 164.059   2
  -2   6  -6 1684.36 176.862   6
   2   6   7 317.231 107.235   2
  -2   6  -7 429.276 120.614   4
  -2   6  -7 386.952 96.9260   6
  -2   6  -8 12636.7 492.091   6
  -2   6  -8 12451.2 514.146   4
   2   6   8 12806.3 533.882   2
   2   6   9 399.579 138.017   2
  -2   6  -9 422.484 117.341   4
  -2   6  -9 532.475 136.825   6
  -2   6 -10 711.372 163.523   6
   2   6  10 598.685 154.689   2
  -2   6 -10 833.758 164.441   4
   2   6  11 517.373 155.675   2
  -2   6 -11 384.658 138.626   4
  -2   6 -11 169.798 98.8188   6
   2   6  12 572.770 193.996   2
  -2   6 -12 691.371 162.847   6
  -2   6 -12 639.619 158.790   4
  -2   6 -13-16.3139 99.8995   6
   2   7 -13 8.95188 107.594   4
   2   7 -13 149.901 108.679   6
  -2   7  12 1473.28 222.742   2
   2   7 -12 1818.04 230.495   6
   2   7 -12 1800.01 227.120   4
  -2   7  11 555.340 157.697   2
   2   7 -11 484.499 140.976   6
   2   7 -10-158.374 123.331   6
  -2   7  10-88.9728 120.294   2
   2   7 -10-168.875 107.121   4
   2   7  -9 583.913 135.610   6
  -2   7   9 303.119 121.586   2
   2   7  -9 459.799 126.748   4
   2   7  -8 8066.22 427.103   4
  -2   7   8 7153.36 401.166   2
   2   7  -8 8088.55 418.114   6
  -2   7   7 115.342 107.233   2
   2   7  -7 223.921 105.908   6
   2   7  -7 250.874 101.518   4
   2   7  -6 3432.14 281.844   4
   2   7  -6 3452.59 265.443   6
   2   7  -6 3451.47 146.974   2
  -2   7   6 3032.15 246.843   2
   2   7  -5 271.977 108.120   6
  -2   7   5 201.666 92.1065   2
   2   7  -5 222.580 58.9297   2
  -2   7   4 16.0882 84.1180   2
   2   7  -4 5.45517 48.0929   2
   2   7  -4 172.645 93.1689   6
  -2   7   3 512.334 104.114   2
   2   7  -3 400.719 84.6251   2
  -2   7   2 14925.9 439.415   2
   2   7  -2 15009.9 417.431   2
  -2   7   1 503.669 93.4636   2
   2   7  -1 633.948 101.758   2
  -2   7   0 15032.4 389.056   2
   2   7   0 14469.3 450.544   2
   2   7   1 489.721 105.875   2
  -2   7  -1 364.555 70.8560   2
  -2   7  -2 98.2639 88.9117   4
  -2   7  -2 41.8760 41.1346   2
   2   7   2 17.5713 88.8720   2
  -2   7  -2 145.472 89.7361   6
  -2   7  -3 213.786 87.4536   6
  -2   7  -3 305.894 111.310   4
   2   7   3 181.606 86.4748   2
  -2   7  -3 317.113 40.7155   2
   2   7   4 3523.69 268.304   2
  -2   7  -4 3536.69 257.365   6
  -2   7  -4 3562.01 279.455   4
  -2   7  -5 96.1657 104.033   4
   2   7   5 199.821 112.943   2
  -2   7  -5 220.576 103.923   6
   2   7   6 8750.96 437.602   2
  -2   7  -6 8331.27 406.001   6
  -2   7  -6 8414.66 440.297   4
  -2   7  -7 460.284 116.631   6
  -2   7  -7 468.990 116.222   4
   2   7   7 377.787 129.383   2
  -2   7  -8-4.70259 97.5803   4
  -2   7  -8-135.653 104.935   6
   2   7   8-110.010 112.148   2
   2   7   9 657.192 166.954   2
  -2   7  -9 784.996 165.374   4
  -2   7  -9 669.547 150.538   6
   2   7  10 1758.61 256.195   2
  -2   7 -10 1742.30 211.723   6
  -2   7 -10 1637.77 233.371   4
  -2   7 -11 152.238 104.856   6
  -2   8  11 205.097 139.823   2
   2   8 -10 2787.69 296.780   4
  -2   8  10 2366.63 288.045   2
   2   8 -10 2520.77 272.294   6
  -2   8   9 44.5915 110.287   2
   2   8  -9 128.820 107.753   6
   2   8  -9 267.549 115.399   4
  -2   8   8 2188.39 258.413   2
   2   8  -8 2090.33 248.952   4
   2   8  -8 2035.26 236.157   6
   2   8  -7 810.522 164.364   6
   2   8  -7 560.620 136.243   4
  -2   8   7 868.641 172.132   2
   2   8  -6 3084.04 292.209   4
   2   8  -6 3300.30 284.000   6
  -2   8   6 3228.44 277.522   2
  -2   8   5 214.670 114.499   2
   2   8  -5 40.0537 100.673   6
   2   8  -4 5279.95 235.437   2
   2   8  -4 5201.40 352.521   6
  -2   8   4 5060.32 307.452   2
  -2   8   3 315.079 95.1273   2
   2   8  -3 243.608 86.0948   2
   2   8  -2 2091.63 177.996   2
  -2   8   2 2292.70 200.821   2
  -2   8   1 897.025 126.686   2
   2   8  -1 1155.60 138.875   2
   2   8   0 1922.05 189.083   2
  -2   8   0 1894.12 160.826   2
  -2   8  -1 240.338 72.3258   2
   2   8   1 112.944 81.0282   2
  -2   8  -1 99.2255 90.4490   6
  -2   8  -2 4813.16 322.421   6
   2   8   2 4636.86 302.437   2
  -2   8  -2 5250.85 351.963   4
  -2   8  -3 52.7093 100.520   4
  -2   8  -3 114.829 97.9973   6
   2   8   3 180.276 103.890   2
  -2   8  -4 3822.97 295.974   6
   2   8   4 3279.61 279.857   2
  -2   8  -4 3648.20 309.326   4
  -2   8  -5 898.133 179.357   4
  -2   8  -5 613.426 153.446   6
   2   8   5 538.247 146.525   2
   2   8   6 1920.50 230.858   2
  -2   8  -6 2455.19 260.817   4
  -2   8  -6 2134.31 260.848   6
  -2   8  -7 109.133 107.144   6
  -2   8  -7 301.255 127.727   4
   2   8   7 94.5648 107.145   2
   2   8   8 2861.95 297.408   2
  -2   8  -8 2549.13 258.734   6
  -2   8  -8 2763.91 289.175   4
   2   8   9 300.800 152.527   2
  -2   8  -9 289.415 117.222   6
  -2   9   9 154.439 142.778   2
  -2   9   8 2429.40 275.636   2
   2   9  -7 253.043 133.738   6
  -2   9   7 136.869 123.655   2
   2   9  -6 5115.21 379.652   6
  -2   9   6 5050.56 358.855   2
   2   9  -6 5258.86 406.005   4
  -2   9   5 607.722 149.552   2
   2   9  -5 719.636 171.168   6
   2   9  -4 1093.82 183.380   6
  -2   9   4 645.326 143.742   2
  -2   9   3-208.200 116.819   2
  -2   9   2 1812.45 181.408   2
   2   9  -1 235.183 96.3140   2
   2   9   0 1575.04 190.468   2
   2   9   1 41.8528 94.1953   2
  -2   9  -1 61.2750 113.607   4
   2   9   2 667.153 148.414   2
  -2   9  -2 834.758 184.413   6
  -2   9  -2 1251.91 198.711   4
   2   9   3 689.769 162.646   2
  -2   9  -3 725.736 172.433   4
  -2   9  -3 512.685 164.553   6
   2   9   4 4382.71 338.544   2
  -2   9  -4 4794.56 351.681   6
  -2   9  -4 4836.90 379.035   4
   2   9   5 315.934 129.961   2
  -2   9  -5 346.229 143.324   6
   2   9   6 2588.29 289.832   2
  -2   9  -6 2482.11 262.374   6
  -2   9  -7 29.2754 124.924   6
  -2  10   7 150.439 151.862   2
  -2  10   6 857.493 187.905   2
  -2  10   0 200.107 130.170   6
  -2  10  -1 1025.64 200.702   6
   2  10   3 508.013 154.179   2
   2  10   4 1217.42 212.198   2
   3  -9 -10 313.823 109.224   3
   3  -9  -9 292.752 119.317   3
   3  -9  -8 402.692 120.915   3
   3  -9  -7 334.094 127.259   3
   3  -9  -6 1851.25 238.990   3
  -3  -9   6 1856.12 246.627   5
  -3  -9   5 796.535 182.208   5
   3  -9  -5 729.780 166.939   3
   3  -9  -4 1201.90 196.158   3
  -3  -9   4 1179.04 193.880   5
   3  -9  -3-18.5504 100.772   3
  -3  -9   3 135.040 110.346   5
  -3  -9   2 55.9741 99.8877   5
   3  -9  -2-27.8594 121.376   3
   3  -9  -1 8.85631 103.559   3
  -3  -9   1-119.112 123.246   5
  -3  -9   0 1.84531 93.9079   5
   3  -9   0 83.2474 97.8612   3
  -3  -9   0 98.3696 139.754   7
  -3  -9  -1 1277.82 207.556   5
  -3  -9  -1 1179.57 218.317   7
   3  -9   1 982.337 189.786   3
   3  -9   2 751.971 172.907   5
   3  -9   2 216.133 131.491   3
  -3  -9  -2 517.201 148.683   5
  -3  -9  -2 545.202 172.104   7
  -3  -9  -3 1844.12 240.261   5
   3  -9   3 1712.44 246.322   3
   3  -9   3 1860.14 251.352   5
  -3  -9  -3 1494.28 238.824   7
   3  -9   4-25.1940 111.076   3
   3  -9   4 7.37243 104.188   5
  -3  -9  -4 171.093 129.924   5
   3  -9   5 308.313 143.251   5
  -3  -9  -5 497.530 155.010   5
  -3  -9  -6 436.404 156.761   5
  -3  -9  -7 361.449 125.343   5
  -3  -8  12 438.825 147.703   5
   3  -8 -11 881.029 156.480   3
  -3  -8  11 1057.70 189.962   5
   3  -8 -11 632.135 154.967   7
   3  -8 -10 547.461 154.099   7
   3  -8 -10 555.058 147.278   3
  -3  -8  10 547.149 149.288   5
  -3  -8   9 375.370 132.843   5
   3  -8  -9 346.821 137.701   7
   3  -8  -8 1402.93 198.519   3
   3  -8  -8 1534.78 237.353   7
  -3  -8   8 1561.48 219.468   5
   3  -8  -7 164.044 114.216   3
  -3  -8   7-94.5321 125.832   5
   3  -8  -6 1973.93 239.457   3
  -3  -8   6 2062.71 236.696   5
   3  -8  -5 74.8229 114.355   3
  -3  -8   5 103.224 110.401   5
  -3  -8   4 331.080 116.246   5
   3  -8  -4 348.576 116.188   3
  -3  -8   3 27.4263 89.8046   5
   3  -8  -3 164.718 109.536   3
  -3  -8   2 405.809 138.050   5
   3  -8  -2 343.347 122.615   3
  -3  -8   1 159.036 98.9839   5
   3  -8  -1 297.041 126.377   3
  -3  -8   0 119.976 98.1150   5
   3  -8   0 85.8358 89.5266   3
  -3  -8  -1 360.237 111.546   5
  -3  -8  -1 484.404 148.553   7
   3  -8   1 528.698 145.659   3
  -3  -8  -2 181.780 132.423   5
   3  -8   2-42.5132 112.980   3
  -3  -8  -2 227.898 125.335   7
  -3  -8  -3 2350.74 251.361   5
   3  -8   3 2179.57 241.740   3
  -3  -8  -3 2008.68 255.391   7
  -3  -8  -4 92.2064 103.183   5
   3  -8   4 117.739 95.5938   3
   3  -8   4-162.452 109.213   5
  -3  -8  -4 22.7291 112.117   7
   3  -8   5 1634.07 216.015   5
  -3  -8  -5 1687.75 242.839   7
   3  -8   5 1721.12 220.517   3
  -3  -8  -5 1443.91 207.037   5
  -3  -8  -6 655.299 160.297   5
  -3  -8  -6 554.982 149.595   7
   3  -8   6 760.983 170.158   3
   3  -8   6 471.179 133.881   5
   3  -8   7 526.140 137.369   5
   3  -8   7 342.598 141.411   3
  -3  -8  -7 311.176 120.116   7
  -3  -8  -7 453.508 129.873   5
   3  -8   8 912.190 180.633   5
  -3  -8  -8 454.734 124.160   5
   3  -8   9 155.765 104.788   5
   3  -8  10 374.536 136.372   5
  -3  -7  15 285.882 131.753   5
   3  -7 -14 547.411 161.568   7
  -3  -7  14 411.046 134.234   5
  -3  -7  13 165.610 102.080   5
   3  -7 -13-42.7355 135.740   7
   3  -7 -12 1265.54 159.579   3
   3  -7 -12 1348.75 218.022   7
  -3  -7  12 1144.42 183.890   5
   3  -7 -11 280.234 137.056   7
   3  -7 -11 436.090 111.701   3
  -3  -7  11 377.829 117.453   5
  -3  -7  10 635.464 154.151   5
   3  -7 -10 429.479 107.481   3
   3  -7 -10 634.619 159.510   7
   3  -7  -9 1085.22 195.731   7
   3  -7  -9 1111.09 164.671   3
  -3  -7   9 1139.00 176.566   5
   3  -7  -8 1768.99 229.342   7
   3  -7  -8 1465.60 179.543   3
  -3  -7   8 1322.98 184.458   5
   3  -7  -7 174.040 89.2430   3
  -3  -7   7 153.019 83.2654   5
   3  -7  -6 839.321 148.192   3
  -3  -7   6 526.845 135.130   5
   3  -7  -5 277.491 109.499   3
  -3  -7   5 289.539 99.4108   5
  -3  -7   5 228.403 62.5802   1
  -3  -7   4 727.633 106.493   1
   3  -7  -4 801.794 146.604   3
  -3  -7   4 823.302 140.905   5
  -3  -7   3 579.284 119.094   5
  -3  -7   3 754.416 116.173   1
   3  -7  -3 586.098 134.700   3
   3  -7  -2 434.185 117.879   3
   3  -7  -2 219.650 68.0516   2
  -3  -7   2 447.367 120.448   5
  -3  -7   1 511.583 123.605   5
   3  -7  -1 411.658 119.465   3
   3  -7  -1 216.917 59.6283   2
  -3  -7   0 695.336 126.339   5
   3  -7   0 627.275 127.141   3
   3  -7   0 483.046 82.8831   2
  -3  -7  -1 855.344 169.222   7
  -3  -7  -1 752.592 137.018   5
   3  -7   1 597.835 131.181   3
  -3  -7  -2 305.311 109.358   5
  -3  -7  -2 201.987 105.263   7
   3  -7   2 337.799 113.960   3
  -3  -7  -3 698.356 135.384   5
  -3  -7  -3 563.825 153.317   7
   3  -7   3 750.893 144.085   3
   3  -7   4 214.422 99.3763   3
  -3  -7  -4 32.8629 107.075   7
  -3  -7  -4 306.191 106.628   5
  -3  -7  -5 1515.36 211.075   7
   3  -7   5 1385.80 190.370   3
  -3  -7  -5 1115.64 170.691   5
   3  -7   5 1198.60 178.734   5
  -3  -7  -6 1270.24 207.035   7
  -3  -7  -6 1039.40 164.163   5
   3  -7   6 1060.26 163.611   5
   3  -7   6 746.344 151.577   3
  -3  -7  -7 719.492 144.491   5
   3  -7   7 491.557 130.837   5
  -3  -7  -7 637.589 158.966   7
   3  -7   7 614.670 144.091   3
  -3  -7  -8 559.514 157.471   7
   3  -7   8 335.625 112.895   3
  -3  -7  -8 472.276 120.816   5
   3  -7   8 529.386 122.581   5
  -3  -7  -9 1203.87 160.124   5
  -3  -7  -9 1258.26 209.864   7
   3  -7   9 1147.02 176.555   5
   3  -7  10-30.2978 89.1819   5
  -3  -7 -10 96.8118 120.745   7
   3  -7  11 558.382 130.160   5
   3  -6 -17 309.105 134.924   7
   3  -6 -16 1681.69 231.109   7
   3  -6 -15 851.084 199.109   7
  -3  -6  15 159.215 105.882   5
  -3  -6  14 468.160 122.533   5
   3  -6 -14 857.239 197.251   7
   3  -6 -13 417.737 162.301   7
  -3  -6  13 237.868 101.713   5
   3  -6 -12 224.787 83.8020   3
   3  -6 -12 82.9971 109.062   7
  -3  -6  12 161.864 103.524   5
   3  -6 -11 831.491 174.691   7
  -3  -6  11 882.535 149.560   5
   3  -6 -11 1166.95 146.334   3
   3  -6 -10 3989.51 262.549   3
   3  -6 -10 4900.83 329.971   7
  -3  -6  10 4651.75 312.834   5
   3  -6  -9 331.928 114.118   7
   3  -6  -9 541.220 113.999   3
  -3  -6   9 443.155 118.101   5
  -3  -6   8 549.786 118.350   5
   3  -6  -8 830.959 130.168   3
   3  -6  -8 512.018 128.335   7
  -3  -6   7 196.247 97.7198   5
  -3  -6   7 250.968 40.8383   1
   3  -6  -7 330.550 97.7842   3
  -3  -6   6 113.870 40.0031   1
   3  -6  -6 164.172 85.4046   3
  -3  -6   6 265.856 100.007   5
   3  -6  -5 131.112 82.7446   3
  -3  -6   5 255.190 63.1616   1
  -3  -6   5 161.539 85.0117   5
  -3  -6   4 442.647 108.024   5
   3  -6  -4 383.801 102.968   3
  -3  -6   4 286.977 69.8835   1
  -3  -6   3 737.089 127.873   5
  -3  -6   3 911.813 117.433   1
   3  -6  -3 1016.91 125.472   2
   3  -6  -3 864.394 136.054   3
  -3  -6   2 259.241 103.337   5
   3  -6  -2 154.336 60.3748   2
  -3  -6   2 98.6034 67.9046   1
   3  -6  -2 233.458 109.559   3
  -3  -6   1 137.302 84.5610   5
  -3  -6   1 142.646 95.2496   1
   3  -6  -1 116.359 66.0246   2
   3  -6  -1-11.7259 79.7698   3
  -3  -6   0 949.732 142.279   5
   3  -6   0 712.147 128.393   3
   3  -6   0 906.220 92.3276   2
  -3  -6  -1 237.330 92.6963   5
   3  -6   1 366.595 105.468   3
  -3  -6  -1 211.270 107.662   7
   3  -6   1 309.477 51.8389   2
  -3  -6  -2 221.965 88.4098   5
  -3  -6  -2 397.342 120.419   7
   3  -6   2 216.913 91.0032   3
  -3  -6  -3 156.007 92.1942   7
   3  -6   3 216.513 98.7410   3
  -3  -6  -3 106.670 72.7527   5
  -3  -6  -4 160.186 75.6293   5
   3  -6   4 88.4992 84.9089   3
  -3  -6  -4 155.024 107.258   7
  -3  -6  -5 577.700 132.223   7
   3  -6   5 739.405 136.593   3
  -3  -6  -5 414.444 94.4659   5
  -3  -6  -6 694.117 153.450   7
  -3  -6  -6 513.458 109.648   5
   3  -6   6 481.230 108.851   5
   3  -6   6 502.115 110.526   3
   3  -6   7 4471.26 298.626   3
  -3  -6  -7 4449.71 264.424   5
   3  -6   7 4312.89 285.048   5
  -3  -6  -7 3974.70 319.163   7
  -3  -6  -8 896.918 179.559   7
  -3  -6  -8 1079.36 136.655   5
   3  -6   8 975.322 153.736   3
   3  -6   8 1141.44 153.976   5
  -3  -6  -9 393.317 158.187   7
  -3  -6  -9 231.968 86.5315   5
   3  -6   9 318.660 105.482   3
   3  -6   9 422.047 114.348   5
   3  -6  10 186.977 90.3227   5
  -3  -6 -10 309.046 136.268   7
  -3  -6 -11 362.319 152.361   7
   3  -6  11 491.369 107.815   5
  -3  -6 -12 363.113 133.415   7
   3  -5 -18 1138.88 192.765   7
   3  -5 -17 242.357 142.884   7
  -3  -5  16 564.367 140.709   5
   3  -5 -16 400.996 165.281   7
   3  -5 -15 1051.63 188.603   7
  -3  -5  15 866.110 151.032   5
   3  -5 -14 596.412 142.360   7
  -3  -5  14 868.353 151.879   5
   3  -5 -13 816.001 155.262   7
   3  -5 -13 708.768 101.758   3
  -3  -5  13 596.889 122.938   5
  -3  -5  12 3106.69 247.743   5
   3  -5 -12 3253.88 263.078   7
   3  -5 -12 3407.07 205.922   3
  -3  -5  11 498.637 110.870   5
   3  -5 -11 646.487 99.3096   3
   3  -5 -11 620.394 132.120   7
   3  -5 -10 854.124 114.503   3
   3  -5 -10 906.185 151.289   7
  -3  -5  10 829.290 133.805   5
   3  -5  -9 1876.55 164.057   3
  -3  -5   9 1787.46 185.266   5
   3  -5  -9 1863.05 196.162   7
  -3  -5   8 314.987 94.9591   5
   3  -5  -8 210.180 94.4638   7
   3  -5  -8 322.672 90.6758   3
  -3  -5   7 488.749 108.006   5
   3  -5  -7 384.471 93.2847   3
   3  -5  -6 1710.06 160.335   3
  -3  -5   6 1564.60 85.5812   1
  -3  -5   6 1734.22 167.337   5
  -3  -5   5 1516.24 97.6992   1
  -3  -5   5 1259.57 148.259   5
   3  -5  -5 1289.43 139.790   3
   3  -5  -5 1531.99 149.928   2
  -3  -5   4 261.266 91.3723   5
   3  -5  -4 148.564 73.0556   3
   3  -5  -4 303.035 84.0373   2
  -3  -5   4 330.797 64.3106   1
   3  -5  -3 265.048 77.3810   2
  -3  -5   3 405.352 74.6133   1
   3  -5  -3 272.268 85.9416   3
  -3  -5   3 290.135 88.8854   5
  -3  -5   2 1077.50 109.520   1
   3  -5  -2 1042.24 104.001   2
  -3  -5   2 1027.38 129.499   5
   3  -5  -2 1217.74 142.841   3
   3  -5  -1 1125.75 134.185   3
  -3  -5   1 1038.68 111.165   1
   3  -5  -1 1021.02 100.471   2
  -3  -5   1 985.731 124.728   5
  -3  -5   0 318.571 83.6482   5
  -3  -5   0 216.024 73.2369   1
   3  -5   0 368.407 60.0806   2
   3  -5   0 241.076 84.7458   3
  -3  -5   0 268.435 81.6539   2
  -3  -5  -1 318.790 84.9454   1
   3  -5   1 325.004 49.0981   2
   3  -5   1 311.876 90.2632   3
  -3  -5  -1 336.360 103.801   7
  -3  -5  -1 313.372 79.7669   2
  -3  -5  -1 250.437 79.9143   5
   3  -5   2 1308.58 64.7487   2
  -3  -5  -2 1547.55 172.213   7
  -3  -5  -2 1350.46 136.896   5
   3  -5   2 1562.50 164.380   3
   3  -5   3 1652.30 169.039   3
  -3  -5  -3 1574.08 178.771   7
  -3  -5  -3 1491.86 144.156   5
  -3  -5  -4 429.096 98.2096   5
  -3  -5  -4 555.341 133.584   7
   3  -5   4 247.133 83.4382   3
  -3  -5  -5 335.604 114.801   7
   3  -5   5 503.650 115.556   3
  -3  -5  -5 418.333 96.1725   5
  -3  -5  -6 1958.00 163.088   5
   3  -5   6 1874.18 182.430   3
  -3  -5  -6 1900.07 200.527   7
   3  -5   6 1980.70 168.882   5
   3  -5   7 833.761 118.717   5
   3  -5   7 871.420 133.547   3
  -3  -5  -7 1201.00 169.622   7
  -3  -5  -7 803.038 115.318   5
  -3  -5  -8 499.465 81.5687   5
   3  -5   8 556.354 109.861   5
  -3  -5  -8 760.100 153.401   7
   3  -5   8 784.191 127.184   3
  -3  -5  -9 3401.81 285.805   7
   3  -5   9 3406.86 230.007   5
   3  -5   9 3497.74 170.068   1
  -3  -5  -9 3361.52 191.560   5
   3  -5   9 3702.52 248.907   3
   3  -5  10 779.718 118.760   5
  -3  -5 -10 648.189 149.537   7
  -3  -5 -10 554.188 84.0663   5
   3  -5  11 926.204 135.569   5
  -3  -5 -11 1138.72 193.396   7
  -3  -5 -12 1318.19 206.038   7
  -3  -5 -13 362.250 135.119   7
   3  -4 -18-185.310 155.730   7
   3  -4 -17 174.928 111.720   7
   3  -4 -16 1320.91 188.453   7
  -3  -4  16 980.966 141.604   5
   3  -4 -15 816.624 149.424   7
  -3  -4  15 804.616 131.715   5
   3  -4 -14 3207.43 253.604   7
  -3  -4  14 3057.49 231.014   5
   3  -4 -13 3195.84 166.906   3
   3  -4 -13 3616.87 260.660   7
  -3  -4  13 3629.59 247.396   5
   3  -4 -12 702.501 92.1657   3
  -3  -4  12 695.228 117.498   5
   3  -4 -12 900.790 137.462   7
   3  -4 -12 652.094 113.544   5
   3  -4 -11 1188.70 157.499   7
  -3  -4  11 1348.45 157.428   5
   3  -4 -11 1457.56 126.847   3
   3  -4 -11 1372.66 139.525   5
   3  -4 -10 893.325 105.804   3
   3  -4 -10 628.604 123.529   7
   3  -4 -10 882.508 113.713   5
  -3  -4  10 804.408 127.353   5
   3  -4  -9 932.324 139.365   7
   3  -4  -9 790.036 111.182   5
  -3  -4   9 833.610 125.925   5
   3  -4  -9 797.205 101.791   3
   3  -4  -8 4069.30 250.299   7
   3  -4  -8 4377.50 214.818   3
   3  -4  -8 4205.22 232.379   5
  -3  -4   8 4263.76 239.738   5
   3  -4  -7 3436.56 194.794   3
   3  -4  -7 3233.93 216.809   2
  -3  -4   7 3295.80 207.875   5
   3  -4  -6 268.650 73.3664   2
   3  -4  -6 336.045 82.0257   3
  -3  -4   6 246.335 25.7047   1
  -3  -4   6 311.580 79.2004   5
  -3  -4   5 1908.05 83.8605   1
   3  -4  -5 1817.13 145.305   3
   3  -4  -5 1489.44 142.451   2
  -3  -4   5 1581.33 139.326   5
  -3  -4   4 1051.98 118.772   5
   3  -4  -4 1095.35 115.142   2
   3  -4  -4 1180.33 120.184   3
  -3  -4   4 999.666 74.6123   1
  -3  -4   3 307.964 75.9652   5
   3  -4  -3 493.689 86.9359   3
  -3  -4   3 317.160 58.4062   1
   3  -4  -3 369.213 72.5376   2
  -3  -4   2 533.808 89.8592   5
  -3  -4   2 493.147 74.3624   1
   3  -4  -2 536.177 94.9442   3
   3  -4  -2 505.906 71.8442   2
   3  -4  -1 497.122 88.0295   3
  -3  -4   1 499.265 75.3845   1
  -3  -4   1 496.262 83.9057   5
   3  -4  -1 551.073 68.1972   2
  -3  -4   0 407.193 80.3595   5
  -3  -4   0 418.676 78.6416   1
   3  -4   0 402.750 51.3271   2
   3  -4   0 501.596 91.5645   3
  -3  -4   0 463.511 80.2925   2
   3  -4   1 934.785 111.628   3
  -3  -4  -1 1018.95 110.988   1
  -3  -4  -1 1206.08 132.808   7
   3  -4   1 991.864 62.2610   2
  -3  -4  -1 952.694 104.322   2
  -3  -4  -1 1091.54 114.632   5
  -3  -4  -2 1969.50 152.102   2
  -3  -4  -2 1779.51 147.816   1
  -3  -4  -2 1793.26 164.590   7
   3  -4   2 1729.57 144.901   3
  -3  -4  -2 1800.66 135.815   5
   3  -4   2 1693.10 58.4223   2
  -3  -4  -3 294.652 68.0936   5
  -3  -4  -3 273.399 96.1648   7
  -3  -4  -3 142.031 64.2142   1
   3  -4   3 242.684 71.2270   3
  -3  -4  -3 179.989 67.3476   2
   3  -4   4 3450.02 206.984   3
  -3  -4  -4 3473.13 227.368   7
  -3  -4  -4 3619.27 185.528   5
  -3  -4  -5 4156.70 258.022   7
   3  -4   5 4172.18 231.519   3
  -3  -4  -5 3963.21 191.699   5
  -3  -4  -6 744.568 94.1742   5
   3  -4   6 804.565 116.684   3
   3  -4   6 747.563 108.831   5
  -3  -4  -6 729.821 121.817   7
   3  -4   7 957.385 114.792   5
  -3  -4  -7 872.630 97.4772   5
  -3  -4  -7 687.852 130.468   7
   3  -4   7 1113.01 130.632   3
  -3  -4  -8 1642.35 122.076   5
   3  -4   8 1508.32 146.197   3
  -3  -4  -8 1254.87 166.382   7
   3  -4   8 1661.38 147.211   5
   3  -4   8 1598.68 119.399   1
   3  -4   9 894.645 121.326   3
  -3  -4  -9 970.602 156.766   7
   3  -4   9 834.206 91.4489   1
  -3  -4  -9 796.490 84.8498   5
  -3  -4  -9 836.930 89.8000   5
   3  -4   9 954.355 115.901   5
   3  -4  10 3367.00 173.208   1
  -3  -4 -10 3539.61 157.982   5
  -3  -4 -10 3606.49 279.553   7
   3  -4  10 3623.01 210.516   5
   3  -4  11 2783.43 162.409   1
   3  -4  11 2699.17 181.469   5
  -3  -4 -11 2487.25 252.600   7
  -3  -4 -12 750.468 164.261   7
  -3  -4 -13 1147.50 205.754   7
  -3  -4 -14 244.650 117.606   7
  -3  -4 -15-12.9686 112.587   7
   3  -3 -18 827.306 148.325   7
   3  -3 -17 695.643 134.044   7
   3  -3 -16 1015.37 148.814   7
  -3  -3  16 899.757 125.460   5
  -3  -3  15 4239.54 250.359   5
   3  -3 -15 4050.26 270.268   7
   3  -3 -14 1875.50 183.353   7
   3  -3 -14 1283.01 138.236   5
  -3  -3  14 1906.27 171.049   5
   3  -3 -14 1175.22 75.5584   3
   3  -3 -13 1399.60 152.823   7
  -3  -3  13 939.709 110.582   7
   3  -3 -13 902.966 110.055   5
   3  -3 -13 714.058 69.9178   3
  -3  -3  13 1147.32 127.712   5
  -3  -3  12 3095.93 183.841   7
   3  -3 -12 3253.54 220.295   7
   3  -3 -12 3043.96 189.486   5
   3  -3 -12 2943.99 145.783   3
  -3  -3  12 3542.45 217.221   5
   3  -3 -11 356.408 62.5221   3
  -3  -3  11 430.077 82.7574   7
   3  -3 -11 677.949 112.802   7
  -3  -3  11 414.263 93.7307   5
   3  -3 -11 542.301 90.7381   5
   3  -3 -10 3007.59 190.832   5
   3  -3 -10 3133.92 158.590   3
   3  -3 -10 3067.92 207.155   7
  -3  -3  10 3445.89 203.325   5
   3  -3  -9 2763.89 191.701   7
   3  -3  -9 2708.98 151.543   3
   3  -3  -9 2671.54 168.777   5
  -3  -3   9 2662.31 181.031   5
   3  -3  -8 1225.94 115.294   5
   3  -3  -8 1180.41 105.589   3
   3  -3  -8 931.021 124.190   2
   3  -3  -8 1257.09 127.935   7
  -3  -3   8 1348.57 137.994   6
  -3  -3   8 1190.44 124.272   5
  -3  -3   7 1379.84 123.625   5
   3  -3  -7 1335.29 108.385   3
   3  -3  -7 1511.39 132.620   7
   3  -3  -7 1363.03 122.700   5
   3  -3  -7 1304.94 133.810   2
   3  -3  -6 7850.71 256.454   3
   3  -3  -6 8355.90 297.999   2
  -3  -3   6 8312.04 284.573   5
   3  -3  -5 1391.75 115.396   3
   3  -3  -5 1505.41 121.522   2
  -3  -3   5 1431.30 125.217   5
  -3  -3   4 431.953 71.9738   5
  -3  -3   4 569.252 46.5950   1
   3  -3  -4 516.013 76.8806   3
   3  -3  -4 535.026 79.5087   2
   3  -3  -3 1698.52 113.882   2
  -3  -3   3 1666.26 125.760   5
   3  -3  -3 1546.33 121.001   3
  -3  -3   3 1609.44 84.6002   1
   3  -3  -2 462.759 63.7734   2
  -3  -3   2 366.743 71.0789   5
  -3  -3   2 469.220 58.4432   1
   3  -3  -2 429.330 73.7507   3
   3  -3  -1 464.143 77.2819   3
  -3  -3   1 454.294 65.6806   1
  -3  -3   1 354.277 64.1912   5
   3  -3  -1 355.585 51.7567   2
  -3  -3   0 1617.49 112.062   1
   3  -3   0 1589.15 122.827   3
  -3  -3   0 1580.57 114.171   5
   3  -3   0 1597.78 80.4600   2
  -3  -3   0 1670.38 131.142   7
  -3  -3   0 1478.12 110.994   2
  -3  -3  -1 520.670 73.1129   5
  -3  -3  -1 580.876 80.7216   2
  -3  -3  -1 459.358 71.2154   1
   3  -3   1 559.927 42.1886   2
   3  -3   1 569.651 81.1452   3
  -3  -3  -1 541.601 86.6467   7
   3  -3   2 1503.68 123.610   3
  -3  -3  -2 1446.19 120.188   1
  -3  -3  -2 1634.71 129.036   2
  -3  -3  -2 1600.48 138.133   7
  -3  -3  -2 1493.60 105.626   5
  -3  -3  -3 8204.04 290.645   2
  -3  -3  -3 8207.67 231.719   5
  -3  -3  -3 8265.83 291.122   1
   3  -3   3 8404.17 276.393   3
  -3  -3  -3 8102.92 301.964   7
  -3  -3  -4 1331.76 130.543   1
   3  -3   4 1257.50 130.121   4
  -3  -3  -4 1149.51 122.586   2
   3  -3   4 1413.34 123.124   3
  -3  -3  -4 1122.01 93.6593   5
   3  -3   4 1357.43 116.954   6
  -3  -3  -4 1210.63 131.118   7
  -3  -3  -5 907.247 123.937   7
   3  -3   5 1088.52 107.584   3
   3  -3   5 1072.89 124.118   4
  -3  -3  -5 852.959 114.554   2
   3  -3   5 1048.56 111.837   6
  -3  -3  -5 917.913 119.346   1
  -3  -3  -5 801.218 77.1546   5
  -3  -3  -6 2768.17 204.930   7
   3  -3   6 2423.88 147.959   5
   3  -3   6 2499.45 159.004   3
   3  -3   6 2653.07 177.483   6
  -3  -3  -6 2567.16 127.041   5
   3  -3   7 3277.59 159.810   1
   3  -3   7 2845.85 74.4112   2
   3  -3   7 3016.14 164.597   5
   3  -3   7 3161.71 178.844   3
  -3  -3  -7 2967.61 216.252   7
  -3  -3  -7 3072.13 132.702   5
   3  -3   8 416.466 70.8337   5
   3  -3   8 411.187 82.6368   3
   3  -3   8 485.458 77.2236   1
  -3  -3  -8 645.010 127.163   7
  -3  -3  -8 432.071 56.7111   5
  -3  -3  -8 365.119 52.7455   5
   3  -3   8 450.349 41.4036   2
   3  -3   9 3415.99 187.611   3
   3  -3   9 3722.80 122.956   2
  -3  -3  -9 3135.07 241.885   7
   3  -3   9 3461.54 178.243   5
  -3  -3  -9 2995.97 120.177   5
  -3  -3  -9 2932.20 113.305   5
   3  -3   9 3370.76 174.494   1
   3  -3  10 888.873 101.738   1
  -3  -3 -10 1164.04 164.428   7
  -3  -3 -10 583.593 43.9473   5
   3  -3  10 1046.97 76.1467   2
   3  -3  10 1013.06 100.706   5
   3  -3  11 1955.26 151.822   1
  -3  -3 -11 1593.72 191.660   7
   3  -3  11 1959.53 135.844   5
   3  -3  12 4166.61 221.549   1
  -3  -3 -12 3812.49 294.202   7
  -3  -3 -13 1239.47 199.547   7
  -3  -3 -14 700.514 172.089   7
  -3  -3 -15 638.664 163.917   7
  -3  -3 -16 275.974 122.513   7
   3  -2 -18 336.972 116.861   7
  -3  -2  17 2258.07 200.615   2
   3  -2 -17 1868.60 192.605   7
  -3  -2  16 2103.68 177.262   2
  -3  -2  16 1988.59 163.390   5
   3  -2 -16 2004.25 193.668   7
  -3  -2  15 635.596 99.9100   5
  -3  -2  15 562.136 104.266   2
   3  -2 -15 644.688 120.585   7
   3  -2 -14 2385.84 189.328   7
  -3  -2  14 2441.34 176.929   2
  -3  -2  14 2423.55 171.331   5
  -3  -2  14 2544.03 177.180   7
   3  -2 -14 2328.17 157.166   5
   3  -2 -13 716.482 56.5662   3
  -3  -2  13 1180.55 116.697   7
  -3  -2  13 1016.66 116.943   5
   3  -2 -13 841.798 96.0928   5
   3  -2 -13 1030.62 125.022   7
  -3  -2  13 1209.88 124.941   2
   3  -2 -12 428.783 53.1642   3
  -3  -2  12 485.501 79.8292   7
   3  -2 -12 492.636 90.0502   7
  -3  -2  12 510.195 93.2862   5
  -3  -2  12 545.307 89.7797   2
   3  -2 -12 456.459 82.2833   5
   3  -2 -11 4271.17 246.864   1
  -3  -2  11 4516.07 199.864   2
  -3  -2  11 4656.86 193.629   7
   3  -2 -11 4407.29 218.061   7
   3  -2 -11 4130.43 196.737   5
  -3  -2  11 4630.97 222.043   5
   3  -2 -11 4515.70 156.597   3
   3  -2 -10 1563.84 155.169   1
   3  -2 -10 1643.48 103.096   3
   3  -2 -10 1701.41 126.232   5
   3  -2 -10 1993.59 147.310   7
  -3  -2  10 1842.50 118.884   7
  -3  -2  10 1755.35 136.671   5
  -3  -2   9 1318.96 127.844   6
   3  -2  -9 1311.74 92.9983   3
   3  -2  -9 1370.11 148.170   2
   3  -2  -9 1227.25 115.815   7
  -3  -2   9 1236.77 113.503   5
   3  -2  -9 1233.97 109.607   5
  -3  -2   9 1202.11 92.4093   7
   3  -2  -8 2540.09 178.302   2
  -3  -2   8 2538.21 153.608   5
  -3  -2   8 2471.93 164.548   6
   3  -2  -8 2440.49 125.494   3
   3  -2  -8 2412.93 141.357   5
   3  -2  -8 2536.91 151.053   7
   3  -2  -7 126.289 42.5598   3
  -3  -2   7 236.829 60.1434   5
   3  -2  -7 159.976 60.9651   7
  -3  -2   7 164.895 63.7276   6
   3  -2  -7 72.8786 41.9090   5
   3  -2  -7 149.099 69.2590   2
   3  -2  -6 10452.8 274.653   5
  -3  -2   6 10604.3 294.856   6
   3  -2  -6 10554.6 308.457   2
  -3  -2   6 10146.8 280.622   5
   3  -2  -6 10167.0 247.269   3
   3  -2  -6 10182.3 270.669   7
   3  -2  -5 840.593 80.7834   3
  -3  -2   5 824.752 88.6166   5
   3  -2  -5 835.334 90.0302   5
   3  -2  -5 812.307 91.2160   2
   3  -2  -4 5131.15 179.115   3
   3  -2  -4 5060.17 187.744   2
  -3  -2   4 5297.79 190.866   5
   3  -2  -3 449.476 66.7983   2
  -3  -2   3 375.666 39.3745   1
  -3  -2   3 332.153 64.2437   5
   3  -2  -3 359.302 63.6454   3
  -3  -2   2 741.163 57.5750   1
   3  -2  -2 726.116 77.0795   3
  -3  -2   2 737.393 76.7633   5
   3  -2  -2 733.586 68.0657   2
   3  -2  -1 882.472 84.7451   3
  -3  -2   1 782.369 77.9712   7
   3  -2  -1 900.567 65.1046   2
  -3  -2   1 861.041 71.5282   1
  -3  -2   1 780.219 75.9040   5
  -3  -2   0 368.598 58.2012   1
   3  -2   0 327.055 59.0801   3
   3  -2   0 397.657 41.6782   2
  -3  -2   0 367.090 57.1861   5
  -3  -2   0 352.254 67.6418   7
   3  -2   1 5023.46 181.046   4
  -3  -2  -1 4973.26 179.940   1
   3  -2   1 5297.50 106.514   2
   3  -2   1 5178.45 184.102   3
  -3  -2  -1 5108.55 184.965   2
  -3  -2  -1 5121.34 193.837   7
  -3  -2  -1 4782.86 154.678   5
  -3  -2  -2 843.535 93.1311   7
  -3  -2  -2 613.807 83.1385   1
  -3  -2  -2 682.514 78.4077   2
   3  -2   2 695.005 81.8170   4
   3  -2   2 671.008 67.9612   6
   3  -2   2 770.867 82.9608   3
  -3  -2  -2 670.460 61.2896   5
   3  -2   3 10351.0 257.809   6
   3  -2   3 10211.4 291.702   4
  -3  -2  -3 10366.8 302.502   7
  -3  -2  -3 10815.5 300.133   2
  -3  -2  -3 10179.0 292.401   1
   3  -2   3 10412.7 263.082   3
   3  -2   3 10308.7 143.158   2
  -3  -2  -3 9979.96 202.195   5
  -3  -2  -4 105.985 32.7712   5
  -3  -2  -4 162.390 58.7985   1
  -3  -2  -4 92.6619 48.8049   7
   3  -2   4 123.811 54.4447   6
   3  -2   4 52.3227 39.6098   3
   3  -2   4 115.849 26.6945   2
   3  -2   4 169.781 65.4992   4
  -3  -2  -4 141.643 57.1522   2
   3  -2   5 2451.95 130.431   3
   3  -2   5 2820.16 175.985   4
  -3  -2  -5 2561.33 170.838   7
   3  -2   5 2463.96 92.8277   2
  -3  -2  -5 2258.87 161.352   2
   3  -2   5 2390.36 150.704   6
  -3  -2  -5 2620.77 169.689   1
  -3  -2  -5 2324.53 92.1247   5
   3  -2   6 1275.44 130.914   7
  -3  -2  -6 1415.83 137.074   2
   3  -2   6 1360.41 99.1514   3
  -3  -2  -6 1024.49 59.5545   5
   3  -2   6 1394.81 136.858   4
  -3  -2  -6 1199.98 131.598   7
   3  -2   6 1171.56 88.3979   5
   3  -2   6 1159.24 95.9376   1
   3  -2   6 1423.29 130.794   6
   3  -2   6 1393.03 80.7611   2
  -3  -2  -6 1231.69 132.665   1
   3  -2   7 1739.23 121.098   1
   3  -2   7 1915.85 157.090   7
   3  -2   7 1855.59 118.909   3
  -3  -2  -7 2029.16 172.700   2
   3  -2   7 1669.13 153.770   6
  -3  -2  -7 1785.70 161.593   1
  -3  -2  -7 1329.49 57.4396   5
   3  -2   7 1745.32 99.9787   2
  -3  -2  -7 1655.48 160.012   7
   3  -2   7 1856.26 104.532   5
   3  -2   8 4189.57 166.437   2
   3  -2   8 4168.13 170.674   3
  -3  -2  -8 3850.86 242.237   7
   3  -2   8 3926.64 188.076   1
   3  -2   8 4034.34 153.778   5
   3  -2   9 486.922 80.1792   2
  -3  -2  -9 315.085 101.316   7
   3  -2   9 548.794 87.3695   1
   3  -2   9 591.210 66.0159   5
   3  -2  10 984.755 113.627   1
   3  -2  10 941.816 99.9372   2
  -3  -2 -10 969.390 147.652   7
   3  -2  10 1042.20 80.0100   5
   3  -2  11 2851.01 119.511   5
  -3  -2 -11 2844.89 234.495   7
   3  -2  11 2824.43 170.511   2
   3  -2  11 2784.84 186.162   1
  -3  -2 -12 571.500 131.898   7
   3  -2  12 728.015 103.411   2
   3  -2  12 693.211 112.761   1
  -3  -2 -13 2094.69 236.662   7
  -3  -2 -14 2089.66 251.096   7
  -3  -2 -15 347.218 148.919   7
  -3  -1  18 2558.66 232.321   2
  -3  -1  17 260.217 103.123   2
  -3  -1  16 1792.01 186.095   2
  -3  -1  16 1273.88 127.106   5
   3  -1 -15 770.320 114.502   7
  -3  -1  15 534.844 93.2702   5
  -3  -1  15 871.637 130.171   2
   3  -1 -14 2131.45 147.737   5
  -3  -1  14 2062.88 150.422   5
  -3  -1  14 2144.70 164.378   7
  -3  -1  14 2442.28 189.074   2
   3  -1 -14 2172.19 168.108   7
   3  -1 -13 457.297 100.012   1
   3  -1 -13 370.204 81.1074   7
  -3  -1  13 460.727 100.810   2
  -3  -1  13 379.231 79.3844   5
   3  -1 -13 217.142 33.4072   3
   3  -1 -13 241.100 67.9648   5
  -3  -1  13 336.766 80.4706   7
   3  -1 -12 5111.92 232.364   4
  -3  -1  12 5709.16 257.434   2
  -3  -1  12 5624.85 263.016   4
   3  -1 -12 4699.34 136.619   3
   3  -1 -12 5399.46 219.767   5
   3  -1 -12 5251.70 230.664   7
  -3  -1  12 5363.61 221.818   5
   3  -1 -12 5762.98 268.504   1
  -3  -1  12 5362.00 218.459   7
  -3  -1  11 704.198 101.732   2
   3  -1 -11 640.221 85.6664   7
   3  -1 -11 678.597 81.7998   5
  -3  -1  11 1054.36 118.666   4
   3  -1 -11 774.045 104.391   1
   3  -1 -11 756.745 61.6871   3
   3  -1 -11 741.893 128.745   2
  -3  -1  11 704.079 83.8387   7
  -3  -1  11 837.686 91.2521   5
   3  -1 -11 781.174 94.5634   4
  -3  -1  10 715.659 110.207   6
  -3  -1  10 759.230 97.3119   4
   3  -1 -10 650.559 97.0071   1
   3  -1 -10 652.532 81.8390   7
   3  -1 -10 700.720 83.1522   5
   3  -1 -10 741.094 85.4296   4
  -3  -1  10 625.364 72.6189   7
   3  -1 -10 665.188 110.725   2
   3  -1 -10 735.835 63.9312   3
  -3  -1  10 645.588 89.0911   2
  -3  -1  10 751.495 88.3631   5
   3  -1  -9 2259.52 127.082   4
  -3  -1   9 2406.77 114.625   7
  -3  -1   9 2307.14 144.970   4
   3  -1  -9 2291.49 132.382   5
  -3  -1   9 2266.67 138.649   2
   3  -1  -9 2269.40 127.933   7
   3  -1  -9 2274.64 105.386   3
   3  -1  -9 2302.13 166.477   2
  -3  -1   9 2224.22 132.596   5
  -3  -1   9 2391.24 166.429   6
  -3  -1   8 2204.48 132.009   2
   3  -1  -8 2356.83 128.288   5
   3  -1  -8 2173.13 101.289   3
  -3  -1   8 2314.82 130.164   5
  -3  -1   8 2320.36 101.898   7
   3  -1  -8 2080.87 112.656   7
   3  -1  -8 2294.36 157.019   2
  -3  -1   8 2278.01 137.379   4
  -3  -1   8 2358.47 155.499   6
   3  -1  -7 593.420 58.5460   3
   3  -1  -7 562.709 88.1151   2
   3  -1  -7 483.623 59.6135   7
  -3  -1   7 457.853 73.9120   6
  -3  -1   7 449.775 71.1249   5
   3  -1  -7 542.748 64.2345   5
  -3  -1   7 570.526 49.4434   7
  -3  -1   7 657.403 72.7462   2
  -3  -1   6 4342.20 152.388   2
   3  -1  -6 4384.07 161.584   5
  -3  -1   6 4190.60 172.403   6
   3  -1  -6 3795.68 176.841   2
   3  -1  -6 4228.41 140.243   7
  -3  -1   6 3920.54 159.102   5
   3  -1  -6 4084.19 135.513   3
  -3  -1   6 4211.51 103.843   7
   3  -1  -5 2825.35 142.028   2
   3  -1  -5 2360.18 108.684   7
  -3  -1   5 2682.18 130.215   6
   3  -1  -5 2679.86 127.540   5
  -3  -1   5 2672.92 128.747   5
   3  -1  -5 2900.58 116.174   3
   3  -1  -4 1459.29 86.0897   3
  -3  -1   4 1477.98 90.1285   6
  -3  -1   4 1397.75 93.4280   5
   3  -1  -4 1442.77 102.736   2
   3  -1  -4 1444.62 95.8233   5
   3  -1  -3 572.322 59.8770   3
   3  -1  -3 703.873 71.8669   5
   3  -1  -3 604.545 69.7878   2
  -3  -1   3 606.468 66.0554   5
   3  -1  -2 119.093 44.3849   3
   3  -1  -2 134.004 47.4798   5
  -3  -1   2 107.821 43.7462   5
  -3  -1   2 129.265 34.1017   7
   3  -1  -2 62.1129 40.7846   2
   3  -1  -1 87.5072 42.9764   3
   3  -1  -1 86.4196 32.8002   4
   3  -1  -1 100.295 36.1860   2
  -3  -1   1 89.9710 42.4227   7
   3  -1  -1 84.1556 42.7306   5
  -3  -1   1 59.1741 38.2551   5
   3  -1   0 540.913 61.4565   3
  -3  -1   0 532.890 63.0389   7
   3  -1   0 487.357 58.2663   4
  -3  -1   0 536.537 61.3872   1
  -3  -1   0 545.147 56.0194   5
   3  -1   0 476.657 38.6331   6
  -3  -1  -1 1433.89 66.9208   5
   3  -1   1 1628.88 93.7341   4
  -3  -1  -1 1547.20 95.7871   2
   3  -1   1 1492.55 71.8699   6
  -3  -1  -1 1458.09 97.3370   7
  -3  -1  -1 1658.75 99.7679   1
   3  -1   1 1462.72 86.5168   3
   3  -1   2 2806.97 130.048   4
   3  -1   2 2629.09 90.0481   2
  -3  -1  -2 2562.72 78.4029   5
   3  -1   2 2681.69 110.518   6
  -3  -1  -2 2595.51 127.037   2
  -3  -1  -2 2596.22 129.222   1
   3  -1   2 2458.20 106.998   3
  -3  -1  -2 2409.76 128.477   7
  -3  -1  -3 4101.64 177.224   7
   3  -1   3 4206.43 172.291   4
  -3  -1  -3 3797.51 83.8487   5
   3  -1   3 4213.69 122.790   2
  -3  -1  -3 4073.51 168.281   2
   3  -1   3 4156.71 177.292   7
   3  -1   3 4197.85 155.510   6
   3  -1   3 4053.80 134.811   3
  -3  -1  -3 4150.69 172.273   1
  -3  -1  -4 576.506 76.1570   2
   3  -1   4 558.493 58.3917   2
  -3  -1  -4 560.934 78.3841   1
  -3  -1  -4 552.675 82.0049   7
   3  -1   4 661.379 85.5414   4
   3  -1   4 642.904 73.5221   6
   3  -1   4 449.026 72.3666   7
   3  -1   4 536.367 56.6400   3
   3  -1   4 522.990 64.5899   1
  -3  -1  -5 2164.80 153.133   4
  -3  -1  -5 2059.01 143.214   7
   3  -1   5 2031.50 141.658   7
   3  -1   5 2068.28 121.762   1
  -3  -1  -5 1880.43 137.643   1
   3  -1   5 2020.77 95.9572   3
   3  -1   5 2020.00 136.750   6
   3  -1   5 1924.90 77.3672   5
  -3  -1  -5 2121.20 139.369   2
   3  -1   5 2179.05 111.294   2
   3  -1   5 2035.98 142.392   4
  -3  -1  -6 2224.65 160.004   4
  -3  -1  -6 2427.47 166.457   7
   3  -1   6 2282.67 159.249   4
   3  -1   6 2630.38 165.457   7
   3  -1   6 2340.92 136.260   1
  -3  -1  -6 2242.04 152.597   2
   3  -1   6 2240.02 99.1097   3
   3  -1   6 2268.50 123.242   2
  -3  -1  -6 2401.54 160.753   1
   3  -1   6 2443.04 159.554   6
   3  -1   6 2195.02 81.8959   5
  -3  -1  -7 530.619 100.715   4
   3  -1   7 574.198 93.1171   6
   3  -1   7 535.111 97.1658   4
  -3  -1  -7 451.873 89.3834   7
  -3  -1  -7 460.439 85.8857   2
  -3  -1  -7 521.553 97.8641   1
   3  -1   7 484.092 50.6793   3
   3  -1   7 453.893 40.1959   5
   3  -1   7 433.278 74.4490   1
   3  -1   7 350.769 83.1810   7
   3  -1   7 433.063 72.8420   2
   3  -1   8 904.823 96.9843   2
  -3  -1  -8 631.976 111.711   1
   3  -1   8 739.764 111.204   7
  -3  -1  -8 746.386 112.880   7
  -3  -1  -8 806.748 115.441   4
  -3  -1  -8 852.473 115.624   2
   3  -1   8 650.283 42.8250   5
   3  -1   8 866.926 102.280   1
  -3  -1  -9 5363.01 284.297   4
   3  -1   9 5512.97 246.975   1
  -3  -1  -9 4952.38 274.029   7
   3  -1   9 5545.31 234.978   2
   3  -1   9 4140.60 87.8918   5
   3  -1  10 191.492 74.9105   1
   3  -1  10 299.387 79.6791   2
  -3  -1 -10 283.614 95.4424   4
  -3  -1 -10 123.282 86.4862   7
   3  -1  11 2007.55 171.845   1
  -3  -1 -11 1918.09 193.818   7
   3  -1  11 2367.18 178.053   2
   3  -1  12 789.536 128.254   2
  -3  -1 -12 722.502 126.751   7
   3  -1  12 807.031 132.571   1
   3  -1  13 2162.97 196.863   2
   3  -1  14 115.134 96.6899   2
   3   0 -19 566.018 133.464   4
  -3   0  19 786.929 172.285   2
   3   0 -18 1122.74 160.847   4
  -3   0  18 1289.54 196.101   2
   3   0 -17 152.101 78.5434   4
  -3   0  17 325.508 117.004   2
  -3   0  16 2558.74 234.642   2
   3   0 -16 2322.63 199.758   4
  -3   0  15 67.2871 56.2260   5
  -3   0  15 141.839 92.7412   2
   3   0 -15 136.931 53.3807   5
   3   0 -15 157.206 70.1464   4
   3   0 -14 4502.12 245.070   4
   3   0 -14 3523.00 108.033   3
  -3   0  14 4018.99 225.137   7
  -3   0  14 5233.14 290.650   2
   3   0 -14 4759.72 234.450   1
  -3   0  14 4029.32 197.786   5
   3   0 -14 2688.00 97.7058   3
   3   0 -14 4445.71 206.205   5
   3   0 -13 350.016 89.0389   4
  -3   0  13 356.491 74.7412   5
   3   0 -13 219.667 39.5785   3
  -3   0  13 277.977 101.223   2
  -3   0  13 304.971 91.7297   4
  -3   0  13 302.965 80.7740   7
   3   0 -13 354.925 80.2420   1
   3   0 -13 229.098 64.3070   5
   3   0 -13 295.172 40.6912   3
  -3   0  12 2802.13 196.807   2
   3   0 -12 2254.89 162.802   4
  -3   0  12 2242.16 164.809   4
  -3   0  12 2350.89 161.154   7
  -3   0  12 2258.77 141.136   5
   3   0 -12 2266.74 144.231   5
   3   0 -12 2454.12 158.138   1
   3   0 -12 2365.21 103.372   3
   3   0 -12 2447.81 188.298   2
  -3   0  11 4154.01 227.384   2
   3   0 -11 4177.01 195.931   4
  -3   0  11 4172.04 202.980   4
   3   0 -11 4512.29 196.671   1
   3   0 -11 4262.08 187.172   5
  -3   0  11 4151.52 186.186   5
   3   0 -11 3851.80 225.785   2
   3   0 -11 4496.14 143.785   3
  -3   0  11 4131.11 189.371   7
   3   0 -10 9048.07 242.655   7
   3   0 -10 9162.96 262.247   5
  -3   0  10 8894.54 249.727   7
  -3   0  10 9315.16 314.232   2
   3   0 -10 8956.69 263.545   4
   3   0 -10 9597.01 269.656   1
  -3   0  10 8816.86 270.922   4
  -3   0  10 9216.32 329.885   6
  -3   0  10 8866.92 257.247   5
   3   0 -10 8924.24 313.048   2
   3   0 -10 8988.14 203.313   3
  -3   0   9 666.657 70.7409   7
  -3   0   9 687.191 93.9550   6
  -3   0   9 887.493 91.4439   4
   3   0  -9 671.590 74.7078   4
   3   0  -9 720.618 77.3044   5
   3   0  -9 713.897 69.2431   7
   3   0  -9 736.768 97.5388   2
   3   0  -9 783.545 82.2664   1
  -3   0   9 831.403 82.8884   5
  -3   0   9 784.037 99.7634   2
  -3   0   8 5431.26 217.560   2
   3   0  -8 5347.73 172.474   4
  -3   0   8 5184.09 174.887   4
  -3   0   8 5070.01 212.431   6
   3   0  -8 5311.39 216.304   2
  -3   0   8 5281.02 185.873   5
   3   0  -8 5414.81 188.408   5
  -3   0   8 5171.55 159.453   7
   3   0  -8 5359.98 153.836   7
   3   0  -7 924.202 59.5707   7
   3   0  -7 773.188 63.2693   4
  -3   0   7 790.331 66.6083   4
  -3   0   7 889.985 79.0746   5
   3   0  -7 900.429 92.7730   2
   3   0  -7 921.265 87.4390   6
  -3   0   7 813.697 87.1834   6
  -3   0   7 931.012 92.5860   2
  -3   0   7 754.439 59.1239   7
   3   0  -7 871.223 76.3416   5
   3   0  -6 1010.69 52.4774   7
   3   0  -6 950.808 60.4998   4
  -3   0   6 929.347 87.7379   2
  -3   0   6 831.448 63.3278   4
  -3   0   6 926.686 54.7117   7
  -3   0   6 904.515 77.5804   5
  -3   0   6 876.763 81.7331   6
   3   0  -6 915.440 84.8165   2
   3   0  -6 874.651 77.8262   6
   3   0  -6 783.439 73.8830   5
  -3   0   5 1000.95 77.9570   6
   3   0  -5 975.620 51.9989   4
   3   0  -5 969.294 82.3163   2
   3   0  -5 977.097 40.4023   7
  -3   0   5 965.128 83.0031   2
   3   0  -5 1015.83 76.2048   5
  -3   0   5 966.849 75.8369   5
  -3   0   5 845.204 53.2499   4
   3   0  -5 1000.25 75.9318   6
   3   0  -4 285.841 44.4586   6
   3   0  -4 219.301 24.9840   4
   3   0  -4 301.961 59.7695   2
  -3   0   4 201.095 52.0197   2
  -3   0   4 284.682 52.6148   5
   3   0  -4 248.300 43.9946   5
  -3   0   4 173.563 40.8798   6
   3   0  -3 144.746 43.3260   5
   3   0  -3 59.6077 25.3526   6
  -3   0   3 46.8739 26.8686   6
  -3   0   3 60.8562 39.3126   5
   3   0  -3 61.4377 38.9726   2
   3   0  -2 161.238 23.4445   7
  -3   0   2 165.566 36.9637   5
   3   0  -2 150.179 20.9720   6
   3   0  -2 188.669 37.1504   5
  -3   0   1 161.322 31.1744   4
   3   0  -1 171.399 26.8733   4
   3   0  -1 165.475 30.7004   7
   3   0  -1 169.087 34.4987   5
  -3   0   1 183.886 34.3909   5
   3   0   0 42.5415 27.9743   3
  -3   0   0 46.3253 33.3812   4
   3   0   0 66.6012 32.7160   4
   3   0   0 8.73635 33.0769   7
  -3   0   0 99.9637 42.6320   7
  -3   0   0 17.1402 26.1912   5
   3   0   0 25.9232 25.4143   5
  -3   0  -1 261.869 51.8883   7
   3   0   1 298.069 39.9235   3
   3   0   1 246.063 51.7188   4
   3   0   1 237.545 46.7312   2
   3   0   1 296.452 54.9207   7
  -3   0  -1 321.902 52.3351   4
  -3   0  -1 286.076 30.9724   5
   3   0   1 280.530 31.7096   5
  -3   0  -2 1112.89 86.3799   4
   3   0   2 907.456 79.5081   7
   3   0   2 877.132 77.1945   1
   3   0   2 832.942 71.0874   2
   3   0   2 915.990 81.2603   4
   3   0   2 909.983 39.1500   5
   3   0   2 937.645 55.9347   3
  -3   0  -2 880.062 85.4094   7
  -3   0  -3 865.594 85.6209   4
   3   0   3 845.601 86.7976   7
  -3   0  -3 788.543 73.2787   2
   3   0   3 903.325 76.2770   2
   3   0   3 939.064 87.3622   4
  -3   0  -3 923.355 88.2109   7
   3   0   3 867.542 52.2496   3
   3   0   3 870.103 84.0339   1
   3   0   4 914.726 82.4986   2
  -3   0  -4 873.658 92.0259   4
   3   0   4 938.803 95.2948   4
   3   0   4 736.313 80.8227   1
   3   0   4 921.173 93.2754   7
  -3   0  -4 844.855 93.2494   7
   3   0   4 871.230 86.3620   6
   3   0   4 811.420 49.0083   3
  -3   0  -4 953.432 81.3185   2
   3   0   5 5634.26 225.775   4
  -3   0  -5 5186.47 218.511   7
   3   0   5 5224.75 213.540   6
   3   0   5 5178.90 203.120   1
  -3   0  -5 5207.96 221.549   4
  -3   0  -5 5155.22 192.859   2
   3   0   5 5628.83 200.283   2
   3   0   5 5188.55 216.672   7
   3   0   5 4596.86 102.785   3
   3   0   6 727.837 94.6516   7
  -3   0  -6 810.945 102.117   4
   3   0   6 677.634 96.1031   4
  -3   0  -6 858.473 92.8297   2
   3   0   6 703.690 87.5116   1
   3   0   6 720.130 95.5352   6
  -3   0  -6 666.380 87.4853   7
   3   0   6 412.871 28.6727   3
   3   0   6 657.119 85.5172   2
  -3   0  -7 9498.14 329.876   4
  -3   0  -7 9771.23 334.062   7
   3   0   7 9886.96 339.186   4
   3   0   7 9535.05 304.991   1
  -3   0  -7 10072.5 299.046   2
   3   0   7 9263.54 326.035   6
   3   0   7 10010.7 330.858   7
   3   0   7 9548.50 300.201   2
  -3   0  -8 4304.48 241.954   4
   3   0   8 4631.15 224.478   2
  -3   0  -8 4482.21 219.556   2
   3   0   8 4227.00 233.184   7
  -3   0  -8 4503.58 244.737   7
   3   0   8 4222.75 223.250   1
  -3   0  -9 2495.17 174.204   2
  -3   0  -9 2342.85 191.321   4
   3   0   9 2551.76 183.333   2
   3   0   9 2694.44 190.025   1
  -3   0 -10 315.159 88.0049   4
   3   0  10 294.390 103.417   1
   3   0  10 315.514 90.5694   2
  -3   0 -10 328.696 92.8890   2
   3   0  11 4571.93 265.922   1
  -3   0 -11 4665.67 294.064   4
   3   0  11 5028.71 273.329   2
   3   0  12 71.2733 77.9944   2
  -3   0 -12 60.7139 74.5872   4
  -3   0 -13 2184.99 227.484   4
   3   0  13 2546.07 220.349   2
  -3   0 -14 420.871 135.162   4
   3   0  14 255.354 112.528   2
  -3   0 -15 984.674 172.244   4
   3   0  15 1064.71 170.701   2
  -3   0 -16 596.244 153.132   4
   3   1 -20 599.325 142.971   4
  -3   1  20 850.235 191.629   2
  -3   1  19 535.332 139.901   2
   3   1 -19 396.009 106.498   4
   3   1 -18 2055.45 218.144   4
  -3   1  18 2497.12 253.598   2
  -3   1  17 269.226 110.394   2
   3   1 -17 71.5310 80.9166   4
   3   1 -16 2054.66 199.061   4
  -3   1  16 2358.75 230.205   2
   3   1 -15 714.940 96.0758   5
   3   1 -15 612.664 117.706   4
  -3   1  15 704.550 141.469   2
   3   1 -15 644.154 62.2981   3
   3   1 -14 1973.63 177.113   4
  -3   1  14 2153.55 179.582   7
   3   1 -14 2318.43 145.800   1
   3   1 -14 1769.29 106.445   3
   3   1 -14 1896.41 145.524   5
  -3   1  14 2200.97 208.565   2
   3   1 -13 302.397 67.0619   1
   3   1 -13 252.410 80.5350   4
  -3   1  13 154.517 70.9642   4
  -3   1  13 326.677 94.1614   7
  -3   1  13 168.246 98.3002   2
   3   1 -13 217.072 51.4663   3
   3   1 -13 206.809 61.9299   5
   3   1 -13 277.809 80.8794   2
  -3   1  12 5025.81 233.877   4
   3   1 -12 5294.72 190.132   1
  -3   1  12 4731.98 239.989   7
   3   1 -12 4797.81 215.299   5
   3   1 -12 4996.68 182.076   3
   3   1 -12 5143.03 240.933   4
   3   1 -12 5307.54 254.486   2
  -3   1  12 4920.62 276.166   2
   3   1 -11 724.407 78.9890   3
   3   1 -11 787.128 76.7974   1
   3   1 -11 861.963 99.7978   4
   3   1 -11 662.041 84.7726   5
  -3   1  11 604.500 103.890   7
  -3   1  11 832.530 130.115   2
   3   1 -11 779.893 102.501   2
  -3   1  11 682.657 84.3119   5
   3   1 -11 762.923 113.002   6
  -3   1  11 588.644 82.8115   4
  -3   1  10 458.464 92.0092   6
  -3   1  10 449.662 71.2308   4
   3   1 -10 612.328 84.7166   4
  -3   1  10 494.030 102.083   2
   3   1 -10 640.813 92.8274   2
  -3   1  10 445.706 68.0614   5
   3   1 -10 630.696 63.6522   1
  -3   1  10 404.307 79.9785   7
   3   1 -10 576.620 96.6204   6
   3   1 -10 406.764 70.9294   5
  -3   1   9 2294.67 131.919   5
   3   1  -9 2483.04 105.297   1
  -3   1   9 2334.49 162.473   6
   3   1  -9 2257.91 144.461   2
  -3   1   9 2305.18 136.980   7
  -3   1   9 2279.18 127.074   4
   3   1  -9 2261.51 135.805   4
   3   1  -9 2227.47 157.718   6
   3   1  -9 2389.04 140.143   5
  -3   1   9 2589.95 172.983   2
   3   1  -8 2089.39 143.814   6
   3   1  -8 2242.85 92.0328   1
  -3   1   8 2078.24 111.521   4
  -3   1   8 1948.91 139.377   6
  -3   1   8 2220.07 125.156   5
   3   1  -8 2162.58 129.465   5
   3   1  -8 2106.90 129.841   2
  -3   1   8 2191.87 150.570   2
   3   1  -8 2115.32 122.675   4
  -3   1   7 578.080 79.5091   6
  -3   1   7 550.150 82.6847   2
   3   1  -7 499.702 60.5843   4
  -3   1   7 473.010 66.4651   5
  -3   1   7 552.567 55.7982   4
   3   1  -7 554.306 45.8489   1
   3   1  -7 579.024 78.8158   6
   3   1  -7 536.389 71.8971   2
   3   1  -7 553.826 67.6501   5
  -3   1   6 4030.63 115.885   4
  -3   1   6 4314.87 165.089   6
   3   1  -6 3983.00 141.080   4
   3   1  -6 3891.58 157.008   5
   3   1  -6 4021.05 150.568   2
   3   1  -6 4134.13 168.438   6
  -3   1   6 3674.36 154.275   5
  -3   1   6 4057.22 175.913   2
   3   1  -5 2761.79 128.004   5
   3   1  -5 2650.64 108.086   4
   3   1  -5 2690.48 114.563   2
  -3   1   5 2658.69 113.261   3
  -3   1   5 2521.86 135.561   2
  -3   1   5 2770.37 80.5421   4
   3   1  -5 2586.99 124.650   6
  -3   1   5 2441.80 122.426   5
  -3   1   4 1525.97 102.677   2
   3   1  -4 1467.38 88.5391   6
  -3   1   4 1483.95 96.0492   5
   3   1  -4 1609.50 95.9074   5
  -3   1   4 1697.98 91.3491   3
  -3   1   3 611.965 64.3804   3
   3   1  -3 558.225 58.0231   6
  -3   1   3 576.516 66.6779   5
  -3   1   3 481.445 65.5344   2
   3   1  -3 553.623 67.1297   5
  -3   1   2 114.663 43.2881   3
  -3   1   2 83.5720 27.0305   4
   3   1  -2 107.142 41.6954   5
  -3   1   2 69.4868 38.2862   2
  -3   1   1 102.662 41.6862   3
   3   1  -1 117.572 44.1230   7
  -3   1   1 76.9603 32.2757   4
   3   1  -1 95.6287 39.7917   1
   3   1  -1 65.2288 35.2268   5
  -3   1   0 474.912 59.1614   3
   3   1   0 549.591 64.8317   2
  -3   1   0 527.604 37.9368   6
   3   1   0 477.990 59.3446   1
  -3   1   0 606.652 59.4641   4
   3   1   0 518.419 51.9479   5
   3   1   0 629.345 66.6538   7
  -3   1  -1 1517.34 71.2651   6
   3   1   1 1436.54 92.7926   1
  -3   1  -1 1323.66 81.3994   3
   3   1   1 1429.55 99.8449   7
  -3   1  -1 1421.47 88.5627   4
   3   1   1 1570.29 96.2399   2
   3   1   1 1456.18 66.5049   5
   3   1   2 2868.40 138.805   4
  -3   1  -2 2640.53 130.227   4
  -3   1  -2 2619.74 110.083   6
   3   1   2 2570.95 127.426   2
   3   1   2 2584.04 135.296   7
  -3   1  -2 2669.40 109.837   3
   3   1   2 2480.30 129.237   1
   3   1   3 4497.31 183.578   4
  -3   1  -3 4311.44 175.886   4
   3   1   3 4024.00 175.256   7
  -3   1  -3 4030.60 155.918   6
   3   1   3 3761.00 164.488   2
   3   1   3 3895.06 170.660   1
  -3   1  -3 4057.09 134.791   3
   3   1   4 569.746 78.4288   4
  -3   1  -4 531.293 80.5185   4
   3   1   4 578.859 83.6551   7
   3   1   4 407.881 67.0745   2
  -3   1  -4 474.532 52.3305   3
   3   1   4 425.277 73.2333   1
  -3   1  -5 2182.65 148.588   4
   3   1   5 2232.68 151.769   7
   3   1   5 2141.30 143.683   2
  -3   1  -5 2176.49 107.841   2
   3   1   5 2144.40 147.028   1
   3   1   5 2004.60 62.2124   3
   3   1   5 2130.83 146.985   4
   3   1   5 1531.15 55.6629   3
  -3   1  -5 2343.85 102.099   3
  -3   1  -6 2499.73 167.979   4
   3   1   6 2279.34 160.542   1
   3   1   6 2212.28 159.333   4
   3   1   6 2350.35 168.451   7
  -3   1  -6 2245.25 98.2245   3
   3   1   6 2255.99 153.196   2
  -3   1  -6 2367.36 121.503   2
   3   1   7 892.568 122.360   7
  -3   1  -7 703.680 103.790   4
   3   1   7 742.523 105.638   4
   3   1   7 517.448 91.9566   1
   3   1   7 705.879 105.749   2
  -3   1  -7 737.721 57.1139   3
  -3   1  -7 685.014 77.4106   2
  -3   1  -8 795.426 89.7215   2
   3   1   8 749.558 122.955   1
   3   1   8 842.186 117.856   2
  -3   1  -8 781.346 118.949   4
  -3   1  -8 778.794 56.5735   3
   3   1   9 5600.82 287.231   1
  -3   1  -9 5502.82 285.672   4
  -3   1  -9 5830.47 229.169   2
   3   1   9 5813.65 282.319   2
  -3   1  -9 5514.22 127.402   3
   3   1  10 262.223 109.837   2
  -3   1 -10 280.217 71.1253   2
  -3   1 -10 346.706 103.136   4
  -3   1 -11 2417.16 173.497   2
   3   1  11 2373.83 211.707   2
  -3   1 -11 2107.24 202.044   4
   3   1  12 772.092 141.140   2
  -3   1 -12 903.725 156.126   4
   3   1  13 1641.81 195.686   2
  -3   1 -13 1804.03 201.295   4
   3   1  14 126.894 101.778   2
  -3   1 -14 66.4169 80.5150   4
  -3   1 -15 2262.85 253.055   4
   3   1  15 3111.03 281.004   2
  -3   1 -16 441.870 133.308   4
   3   1  16 622.064 161.553   2
   3   1  17 766.955 171.078   2
   3   2 -20 701.696 154.283   4
  -3   2  19 1107.79 198.419   2
   3   2 -19 1037.20 177.298   4
  -3   2  18 795.558 173.872   2
   3   2 -18 255.169 95.5132   4
   3   2 -17 1781.57 207.814   4
  -3   2  17 2524.73 260.579   2
   3   2 -16 2371.77 214.474   4
  -3   2  16 2238.53 240.450   2
  -3   2  15 790.331 164.011   2
   3   2 -15 622.153 121.118   4
   3   2 -14 2592.75 184.776   5
   3   2 -14 2847.92 212.625   4
   3   2 -14 2742.66 240.046   6
   3   2 -14 2528.53 182.094   2
   3   2 -14 2757.99 159.656   3
  -3   2  14 3117.35 256.762   2
   3   2 -13 1000.56 112.990   5
   3   2 -13 820.487 139.538   6
   3   2 -13 1070.47 133.234   4
  -3   2  13 867.078 117.716   4
   3   2 -13 905.134 117.620   2
   3   2 -13 854.718 96.1649   3
  -3   2  13 901.506 144.106   2
   3   2 -12 557.375 93.8201   2
   3   2 -12 566.168 97.3714   5
   3   2 -12 558.068 123.689   6
   3   2 -12 704.487 115.540   4
  -3   2  12 430.354 124.543   2
   3   2 -12 521.767 82.1502   3
  -3   2  12 522.070 91.5845   4
   3   2 -11 4067.84 246.973   6
   3   2 -11 3974.24 216.785   4
   3   2 -11 3907.72 204.528   5
  -3   2  11 4044.56 199.308   4
   3   2 -11 4066.76 197.429   2
   3   2 -11 4466.82 199.481   3
  -3   2  11 4303.02 268.160   2
  -3   2  10 2044.00 134.747   4
   3   2 -10 2120.30 175.575   6
  -3   2  10 1851.79 169.309   2
   3   2 -10 2086.26 141.093   3
   3   2 -10 1819.09 141.552   4
   3   2 -10 1965.05 135.111   2
   3   2 -10 2065.37 147.702   5
  -3   2   9 1222.97 99.1532   4
   3   2  -9 1448.19 126.503   4
   3   2  -9 1228.09 105.077   3
   3   2  -9 1148.74 123.180   6
  -3   2   9 1139.52 134.172   2
  -3   2   9 1319.57 90.3847   3
   3   2  -9 1212.95 103.308   2
   3   2  -9 1354.45 119.279   5
  -3   2   8 2587.77 129.393   4
  -3   2   8 2729.03 182.571   2
   3   2  -8 2467.78 149.406   4
  -3   2   8 2535.56 125.986   3
   3   2  -8 2306.92 158.576   6
   3   2  -8 2535.70 145.101   3
   3   2  -8 2324.89 127.176   2
   3   2  -8 2559.30 152.764   5
  -3   2   7 88.4152 62.9995   2
   3   2  -7 85.0165 50.0757   5
   3   2  -7 181.169 59.5244   6
   3   2  -7 96.7246 52.0450   4
   3   2  -7 89.7622 39.8526   2
   3   2  -7 165.155 55.2396   3
  -3   2   7 142.355 40.7349   4
  -3   2   7 111.688 42.1549   3
  -3   2   6 10374.5 301.162   2
  -3   2   6 10052.1 244.417   3
   3   2  -6 10192.4 224.086   2
   3   2  -6 10049.8 263.459   4
   3   2  -6 9802.63 283.264   6
   3   2  -6 10186.7 279.482   5
   3   2  -5 793.518 84.7267   6
  -3   2   5 748.683 75.1875   3
  -3   2   5 817.111 92.4512   2
   3   2  -5 962.285 94.5401   5
   3   2  -4 5324.01 186.559   6
   3   2  -4 5170.88 190.512   5
  -3   2   4 5303.33 182.680   3
  -3   2   4 4973.31 185.925   2
   3   2  -4 5153.86 96.4193   1
   3   2  -3 459.583 67.5472   5
   3   2  -3 405.017 40.0092   1
  -3   2   3 310.384 60.1970   2
  -3   2   3 344.437 60.8193   3
   3   2  -2 808.952 78.2535   5
   3   2  -2 867.417 62.8627   1
  -3   2   2 752.508 79.5189   3
  -3   2   2 809.206 69.7278   2
   3   2  -1 763.758 76.4835   5
   3   2  -1 750.180 71.0800   2
   3   2  -1 784.803 70.4718   1
  -3   2   1 697.829 68.5304   4
  -3   2   1 723.505 57.7015   2
  -3   2   1 880.733 85.8430   3
   3   2   0 328.323 59.7850   1
   3   2   0 328.998 56.9801   2
  -3   2   0 311.982 44.9394   6
  -3   2   0 421.385 63.6576   4
  -3   2   0 410.039 64.1766   3
   3   2   1 5054.47 185.443   2
  -3   2  -1 4983.01 150.432   6
   3   2   1 4965.52 197.596   7
  -3   2  -1 4956.47 177.679   4
  -3   2  -1 5105.81 183.750   3
   3   2   1 4778.16 181.330   1
   3   2   2 758.696 91.0716   1
   3   2   2 805.113 70.4963   3
   3   2   2 747.418 86.3798   2
  -3   2  -2 790.413 86.0119   4
  -3   2  -2 696.422 66.0140   6
   3   2   2 879.730 101.645   7
  -3   2  -2 798.008 82.5486   3
   3   2   3 10209.4 296.790   1
   3   2   3 10374.8 308.797   7
  -3   2  -3 10518.3 264.724   3
  -3   2  -3 10234.3 259.128   6
  -3   2  -3 10284.8 288.642   4
   3   2   3 10308.4 218.005   3
   3   2   3 10563.1 295.695   2
  -3   2  -4 180.931 56.0845   6
   3   2   4 254.761 67.1729   4
  -3   2  -4 239.737 65.4876   4
  -3   2  -4 239.879 53.2287   3
   3   2   4 185.371 68.4264   7
   3   2   4 144.348 36.9178   3
   3   2   4 220.861 74.2196   2
   3   2   4 100.016 64.2142   1
   3   2   5 2207.79 159.780   4
  -3   2  -5 2345.27 164.034   4
   3   2   5 2410.91 166.284   2
  -3   2  -5 2473.55 133.101   3
   3   2   5 2156.30 162.820   7
   3   2   5 2338.65 97.1900   3
   3   2   5 2311.68 164.157   1
  -3   2  -5 2238.30 146.677   6
  -3   2  -6 1351.81 137.035   4
   3   2   6 1148.83 63.6001   3
   3   2   6 1099.52 133.128   7
   3   2   6 1477.76 142.821   2
  -3   2  -6 1323.25 126.632   6
  -3   2  -6 1318.71 102.861   3
   3   2   6 1259.83 136.145   1
   3   2   6 1476.77 138.504   4
   3   2   7 1723.79 167.641   1
  -3   2  -7 1790.07 162.384   4
  -3   2  -7 1650.19 150.352   6
  -3   2  -7 1797.39 118.173   3
   3   2   7 1024.55 52.8867   3
   3   2   7 1536.91 155.682   2
   3   2   7 1817.44 157.983   4
   3   2   7 1986.41 176.861   7
  -3   2  -8 4307.32 252.289   4
  -3   2  -8 4494.52 181.189   3
   3   2   8 4171.85 250.459   2
  -3   2  -9 573.050 71.3003   3
  -3   2  -9 610.067 71.1517   2
  -3   2  -9 470.975 102.604   4
   3   2   9 538.776 113.107   2
  -3   2 -10 1350.26 107.039   2
  -3   2 -10 1122.34 153.794   4
   3   2  10 1256.58 161.374   2
  -3   2 -10 1269.75 93.8844   3
  -3   2 -11 2104.39 208.589   4
  -3   2 -11 2753.51 158.076   2
   3   2  11 2393.68 219.385   2
  -3   2 -11 2690.73 124.134   3
   3   2  12 662.343 145.106   2
  -3   2 -12 661.903 129.579   4
  -3   2 -13 2461.98 245.152   4
   3   2  13 2439.72 256.419   2
   3   2  14 2263.59 247.034   2
  -3   2 -14 1871.38 229.667   4
  -3   2 -15 327.022 125.084   4
   3   2  15 657.701 163.008   2
   3   2  16 1372.94 221.924   2
   3   2  17 788.995 174.427   2
   3   3 -19 435.391 146.103   4
   3   3 -18 624.667 136.137   4
  -3   3  18 813.277 187.537   2
   3   3 -17 795.626 148.970   4
  -3   3  17 884.759 177.526   2
   3   3 -16 848.492 150.005   4
  -3   3  16 1012.80 193.627   2
   3   3 -15 4310.22 325.959   6
   3   3 -15 4086.63 280.824   4
  -3   3  15 4625.30 333.360   2
   3   3 -14 1869.40 209.418   6
   3   3 -14 1820.26 161.154   3
   3   3 -14 2032.23 200.890   4
  -3   3  14 2201.54 235.938   2
  -3   3  13 1204.07 178.706   2
   3   3 -13 1073.74 122.957   3
   3   3 -13 891.525 133.580   4
   3   3 -13 1016.17 150.584   6
   3   3 -13 987.590 105.376   2
  -3   3  12 3231.26 195.498   4
   3   3 -12 3940.91 242.771   4
   3   3 -12 3663.79 254.729   6
   3   3 -12 3782.11 214.938   3
   3   3 -12 3257.27 173.903   2
  -3   3  12 3802.78 273.050   2
  -3   3  11 423.090 128.500   2
   3   3 -11 374.744 70.4414   2
  -3   3  11 445.486 87.4596   4
  -3   3  11 387.486 63.9160   3
   3   3 -11 519.093 110.598   6
   3   3 -11 375.228 89.7402   3
   3   3 -11 504.754 100.630   4
  -3   3  10 3286.08 183.864   4
   3   3 -10 3206.29 205.889   4
   3   3 -10 3335.38 196.314   3
   3   3 -10 3256.60 222.498   6
  -3   3  10 3079.29 231.780   2
   3   3 -10 3228.81 197.407   5
  -3   3  10 3432.48 163.685   3
   3   3 -10 3198.46 156.079   2
   3   3  -9 2742.85 184.363   4
   3   3  -9 2564.39 171.933   3
  -3   3   9 2820.13 158.657   4
  -3   3   9 2666.59 205.859   2
   3   3  -9 2753.82 195.364   6
  -3   3   9 2443.83 141.581   3
   3   3  -9 2512.56 132.301   2
   3   3  -9 3215.22 192.225   5
  -3   3   8 831.253 90.4806   3
   3   3  -8 1132.52 118.935   5
   3   3  -8 1057.91 117.904   3
  -3   3   8 751.303 115.920   2
  -3   3   8 998.802 99.7909   4
   3   3  -8 932.341 79.5183   2
   3   3  -8 945.365 115.953   6
   3   3  -8 802.746 104.187   4
   3   3  -7 1197.14 117.174   4
  -3   3   7 1200.48 102.532   3
   3   3  -7 1229.73 84.4131   2
  -3   3   7 1138.45 124.700   2
   3   3  -7 1317.55 127.208   6
   3   3  -7 1359.73 126.211   5
   3   3  -7 1191.26 116.946   3
   3   3  -6 8221.27 283.001   6
   3   3  -6 8377.29 283.658   3
  -3   3   6 8018.46 291.678   2
  -3   3   6 8209.71 257.163   3
   3   3  -6 8559.01 284.436   5
   3   3  -5 1475.99 121.705   3
   3   3  -5 1307.35 117.047   6
  -3   3   5 1513.80 127.739   2
  -3   3   5 1376.54 111.667   3
   3   3  -5 1515.44 119.672   5
  -3   3   4 552.881 75.0674   3
  -3   3   4 535.417 80.6126   2
   3   3  -4 602.271 88.3887   3
   3   3  -3 1560.29 94.7576   2
   3   3  -3 1482.21 122.901   3
  -3   3   3 1624.23 114.041   2
  -3   3   3 1435.37 117.368   3
   3   3  -2 447.192 62.9948   2
  -3   3   2 377.065 60.8768   2
  -3   3   2 390.477 71.1222   3
   3   3  -2 399.730 71.6661   3
   3   3  -1 376.785 65.3984   3
   3   3  -1 398.592 60.2031   2
  -3   3   1 335.996 54.5177   2
  -3   3   1 537.064 74.9134   3
  -3   3   0 1522.91 115.800   4
   3   3   0 1709.10 123.340   3
   3   3   0 1626.27 114.175   2
  -3   3   0 1483.97 118.159   3
  -3   3   0 1650.80 80.2867   2
  -3   3  -1 523.843 79.2265   4
   3   3   1 511.929 76.0491   3
  -3   3  -1 453.380 66.7436   6
   3   3   1 539.982 82.8003   2
  -3   3  -1 491.443 78.1042   3
  -3   3  -2 1552.03 122.644   4
   3   3   2 1599.51 114.557   3
  -3   3  -2 1529.90 122.181   3
  -3   3  -2 1474.59 105.283   6
   3   3   2 1411.02 119.434   2
   3   3   3 8176.21 240.455   3
   3   3   3 8326.36 289.622   2
  -3   3  -3 8090.46 283.222   4
  -3   3  -3 8255.39 254.711   6
  -3   3  -3 8363.55 277.434   3
   3   3   4 1441.54 137.549   2
   3   3   4 1223.49 97.0625   3
  -3   3  -4 1365.72 118.160   6
  -3   3  -4 1390.97 121.995   3
  -3   3  -4 1262.37 125.944   4
   3   3   5 1182.72 144.316   7
  -3   3  -5 1232.17 133.207   4
   3   3   5 1113.71 129.200   4
  -3   3  -5 1274.27 120.741   6
   3   3   5 1262.55 93.6669   3
   3   3   5 1207.35 135.630   2
  -3   3  -5 1201.91 112.766   3
   3   3   6 2598.17 189.108   4
  -3   3  -6 2951.17 203.557   4
   3   3   6 2567.79 193.892   2
   3   3   6 2420.87 122.495   3
  -3   3  -6 2691.30 164.435   3
  -3   3  -6 2807.20 185.529   6
  -3   3  -7 3209.67 221.452   4
  -3   3  -7 3408.02 184.669   3
  -3   3  -7 3211.90 210.302   6
   3   3   7 3194.39 130.295   3
   3   3   7 3289.01 227.730   2
  -3   3  -8 490.517 111.202   4
  -3   3  -8 516.601 85.3989   3
  -3   3  -8 502.303 108.741   6
   3   3   8 428.238 49.3404   3
   3   3   8 568.279 122.649   2
  -3   3  -9 3367.87 250.499   4
   3   3   9 1955.20 75.5554   3
   3   3   9 3229.53 251.496   2
  -3   3  -9 3301.44 237.258   6
  -3   3  -9 3235.12 183.557   3
   3   3  10 817.679 152.309   2
  -3   3 -10 1213.13 166.589   4
  -3   3 -10 1113.74 111.587   3
  -3   3 -11 2183.73 219.319   4
   3   3  11 2109.16 230.781   2
  -3   3 -12 4004.99 302.124   4
   3   3  12 4431.16 323.060   2
   3   3  13 964.229 184.936   2
  -3   3 -13 798.219 165.138   4
  -3   3 -14 915.899 172.844   4
   3   3  14 924.347 179.315   2
   3   3  15 813.893 200.413   2
  -3   3 -15 490.701 151.083   4
   3   3  16 384.246 169.449   2
   3   4 -18 30.0634 100.738   4
   3   4 -17 366.089 143.598   6
   3   4 -17 275.635 120.200   4
  -3   4  17 331.243 144.726   2
   3   4 -16 1453.20 184.526   4
   3   4 -16 1257.25 196.114   6
  -3   4  16 1291.34 216.796   2
   3   4 -15 844.174 144.855   4
   3   4 -15 637.945 139.021   6
  -3   4  15 649.210 161.616   2
   3   4 -14 3366.92 262.575   4
  -3   4  14 3402.39 300.188   2
   3   4 -14 2620.10 246.036   6
   3   4 -13 3486.52 256.186   4
   3   4 -13 3885.77 283.721   6
  -3   4  13 3209.60 282.510   2
   3   4 -12 962.065 139.593   4
  -3   4  12 1112.85 169.920   2
  -3   4  12 859.070 97.4758   3
   3   4 -12 770.477 135.033   6
   3   4 -12 846.375 80.3815   2
   3   4 -11 1799.96 183.521   6
   3   4 -11 1647.06 165.865   4
  -3   4  11 1599.86 149.115   4
  -3   4  11 1497.01 129.953   3
  -3   4  11 1693.28 197.393   2
   3   4 -11 1507.86 104.030   2
  -3   4  10 896.070 108.217   3
  -3   4  10 981.952 117.744   4
   3   4 -10 983.723 82.2180   2
   3   4 -10 913.152 130.961   6
   3   4 -10 919.516 133.968   4
  -3   4  10 1032.02 160.760   2
  -3   4   9 707.236 135.447   2
   3   4  -9 762.120 127.063   6
  -3   4   9 712.778 100.805   3
   3   4  -9 787.773 73.8008   2
   3   4  -9 629.135 108.725   3
   3   4  -9 745.650 117.833   4
   3   4  -8 4335.31 152.975   2
   3   4  -8 4635.90 247.000   4
  -3   4   8 3943.47 204.326   3
   3   4  -8 4245.08 245.649   6
  -3   4   8 4544.33 268.127   2
   3   4  -8 4236.08 236.143   3
   3   4  -7 3461.55 210.811   4
   3   4  -7 3500.21 210.821   3
  -3   4   7 3439.76 221.398   2
   3   4  -7 3333.21 133.347   2
   3   4  -7 3430.46 212.400   6
  -3   4   7 3581.95 196.050   3
   3   4  -6 205.521 46.3589   2
  -3   4   6 270.559 89.1642   2
   3   4  -6 299.959 78.8622   3
   3   4  -6 281.590 75.5958   6
  -3   4   6 281.277 67.1043   3
   3   4  -5 1999.94 156.725   6
  -3   4   5 1997.15 151.707   3
   3   4  -5 2086.51 163.375   3
  -3   4   5 1643.63 146.790   2
   3   4  -5 1755.36 104.658   2
   3   4  -4 1020.71 87.9689   2
   3   4  -4 1108.38 120.392   3
  -3   4   4 982.115 111.766   2
  -3   4   4 836.466 102.802   3
   3   4  -3 425.816 61.4327   2
   3   4  -3 437.223 79.9560   3
  -3   4   3 425.496 77.7305   2
  -3   4   3 477.406 79.5286   3
   3   4  -2 474.718 70.2840   2
  -3   4   2 490.761 73.0283   2
   3   4  -2 511.851 84.8449   3
  -3   4   2 528.098 83.0562   3
   3   4  -1 406.290 88.6617   3
  -3   4   1 480.292 65.9933   2
   3   4  -1 530.202 80.0186   2
  -3   4   1 430.171 82.3654   3
  -3   4   0 399.418 52.2063   2
   3   4   0 323.777 75.8565   3
   3   4   0 393.839 71.8593   2
  -3   4   0 463.339 82.6880   3
   3   4   1 1044.39 111.063   2
  -3   4  -1 1043.18 112.971   4
  -3   4  -1 1027.37 62.4146   2
   3   4   1 1032.18 108.636   3
  -3   4  -1 962.514 99.0741   6
  -3   4  -1 1193.88 122.203   3
  -3   4  -2 1894.82 151.248   4
   3   4   2 1885.91 144.163   3
  -3   4  -2 1762.02 130.071   6
  -3   4  -2 1809.74 153.359   3
   3   4   2 1934.04 153.408   2
  -3   4  -3 342.572 86.7738   4
  -3   4  -3 264.814 67.0404   6
   3   4   3 257.776 63.6685   3
  -3   4  -3 374.566 87.3691   3
   3   4   3 355.960 89.6919   2
  -3   4  -4 3333.72 212.216   4
   3   4   4 3269.06 216.255   2
   3   4   4 3490.56 182.067   3
  -3   4  -4 3365.98 210.688   3
  -3   4  -4 3515.14 197.797   6
  -3   4  -5 4349.27 249.675   4
   3   4   5 3999.20 244.018   2
  -3   4  -5 4326.64 233.337   3
   3   4   5 3979.66 199.895   3
  -3   4  -5 4401.60 228.685   6
   3   4   6 870.892 98.9853   3
  -3   4  -6 1330.22 156.179   4
  -3   4  -6 892.382 114.481   6
   3   4   6 842.318 133.954   2
  -3   4  -6 856.543 116.123   3
  -3   4  -7 956.943 129.622   6
   3   4   7 1076.99 158.508   2
  -3   4  -7 966.699 123.842   3
   3   4   7 924.581 96.4660   3
  -3   4  -7 855.013 133.993   4
  -3   4  -8 1495.91 176.409   4
  -3   4  -8 1253.71 153.887   6
   3   4   8 1483.76 179.200   2
   3   4   8 1326.40 103.861   3
  -3   4  -8 1295.23 139.620   3
  -3   4  -9 936.639 151.457   4
  -3   4  -9 713.930 129.909   6
  -3   4  -9 853.607 116.539   3
   3   4   9 805.010 155.270   2
  -3   4 -10 3659.93 225.786   3
  -3   4 -10 3384.71 262.029   6
  -3   4 -10 3574.31 280.720   4
   3   4  10 3663.24 288.504   2
  -3   4 -11 3261.91 280.388   4
  -3   4 -11 3287.72 273.369   6
   3   4  11 3157.29 278.990   2
   3   4  12 737.085 158.145   2
  -3   4 -12 809.941 166.015   4
   3   4  13 1518.67 233.350   2
  -3   4 -13 881.309 178.536   4
   3   4  14 80.9923 122.727   2
  -3   4 -14 83.5861 92.9032   4
   3   5 -17 269.292 120.150   4
   3   5 -16 403.993 132.545   6
  -3   5  16 435.266 156.469   2
   3   5 -16 569.579 155.112   4
   3   5 -15 1282.53 193.602   4
   3   5 -15 1096.35 182.711   6
  -3   5  15 920.843 184.208   2
   3   5 -14 898.946 160.600   4
  -3   5  14 853.802 168.482   2
   3   5 -14 601.884 145.721   6
   3   5 -13 761.018 161.527   6
   3   5 -13 585.136 132.655   4
  -3   5  13 603.023 153.658   2
   3   5 -12 3258.91 252.967   4
   3   5 -12 3861.47 286.851   6
  -3   5  12 3225.81 283.950   2
  -3   5  11 517.029 96.0073   3
   3   5 -11 536.790 49.8518   2
   3   5 -11 736.027 132.503   6
   3   5 -11 567.714 120.568   4
  -3   5  11 311.219 111.676   2
  -3   5  10 1047.37 164.601   2
   3   5 -10 938.940 141.563   6
  -3   5  10 988.112 119.976   3
   3   5 -10 1022.38 141.307   4
   3   5 -10 917.110 66.8409   2
   3   5 -10 951.502 64.9628   2
   3   5  -9 1998.22 190.142   4
   3   5  -9 1960.55 96.7366   2
  -3   5   9 1815.61 197.389   2
  -3   5   9 2159.80 173.982   3
   3   5  -9 1894.72 188.218   6
   3   5  -9 1851.34 96.5584   2
   3   5  -8 372.649 106.508   4
  -3   5   8 328.294 123.598   2
   3   5  -8 378.203 47.9714   2
   3   5  -8 500.989 113.219   6
   3   5  -8 311.925 50.8026   2
  -3   5   8 434.748 98.7463   3
   3   5  -7 545.559 114.896   4
  -3   5   7 286.913 109.334   2
   3   5  -7 446.237 61.6436   2
   3   5  -7 428.369 103.394   6
  -3   5   7 480.115 99.4156   3
   3   5  -6 1578.27 103.115   2
  -3   5   6 1643.92 155.633   3
  -3   5   6 1415.04 151.587   2
   3   5  -6 1879.66 176.339   6
   3   5  -5 1554.38 105.647   2
  -3   5   5 1489.08 153.637   2
   3   5  -5 1610.30 156.124   6
  -3   5   5 1533.09 151.694   3
  -3   5   4 311.869 79.8176   2
   3   5  -4 330.104 65.0904   2
   3   5  -3 272.364 72.8888   2
  -3   5   3 263.390 79.2172   2
  -3   5   2 1012.50 106.521   2
   3   5  -2 1059.22 111.321   2
  -3   5   1 1209.80 105.633   2
   3   5  -1 1103.28 114.809   2
  -3   5   0 426.259 68.2802   2
   3   5   0 200.696 74.6243   2
   3   5   0 203.778 79.7256   3
   3   5   1 111.274 73.8035   3
  -3   5  -1 268.080 88.7634   4
  -3   5  -1 255.461 47.1167   2
   3   5   1 229.908 84.8773   2
  -3   5  -1 208.997 68.5135   6
  -3   5  -2 1479.92 136.881   6
  -3   5  -2 1364.12 151.374   4
   3   5   2 1443.24 148.237   2
   3   5   2 1402.71 143.755   3
   3   5   3 1658.77 152.148   3
  -3   5  -3 1743.14 150.430   6
  -3   5  -3 1514.57 159.248   4
   3   5   3 1559.99 162.818   2
  -3   5  -4 469.686 96.5061   6
   3   5   4 457.603 90.9949   3
  -3   5  -4 440.402 111.126   4
   3   5   4 544.269 122.976   2
   3   5   5 306.764 85.9858   3
  -3   5  -5 553.153 121.815   4
  -3   5  -5 300.399 89.5393   6
   3   5   5 341.112 112.350   2
  -3   5  -6 1823.55 187.919   4
   3   5   6 1566.98 147.232   3
  -3   5  -6 1707.40 166.564   6
   3   5   6 1546.27 185.297   2
   3   5   7 928.210 157.131   2
  -3   5  -7 914.050 133.947   6
  -3   5  -7 893.938 148.549   4
   3   5   7 735.879 99.2528   3
   3   5   8 641.558 140.182   2
  -3   5  -8 653.129 138.390   4
  -3   5  -8 631.139 121.157   6
   3   5   8 577.240 91.3760   3
  -3   5  -9 3857.09 295.234   4
  -3   5  -9 3476.67 266.408   6
   3   5   9 3641.13 292.523   2
  -3   5 -10 622.322 144.734   4
  -3   5 -10 695.363 130.151   6
   3   5  10 1022.68 187.147   2
  -3   5 -11 716.807 157.976   4
  -3   5 -11 600.113 152.314   6
   3   5  11 648.462 158.818   2
  -3   5 -12 1042.56 200.199   4
  -3   5 -12 1028.33 190.483   6
   3   5  12 962.422 177.287   2
  -3   5 -13 504.015 156.858   6
  -3   5 -13 805.445 179.076   4
   3   5  13 704.165 182.406   2
   3   6 -15 3.52839 98.9632   4
  -3   6  14 485.747 162.526   2
   3   6 -14 855.696 162.220   6
   3   6 -14 585.138 143.456   4
  -3   6  13 129.354 125.408   2
   3   6 -13 109.880 106.567   4
  -3   6  12 357.593 131.724   2
   3   6 -12 258.087 116.068   4
   3   6 -12 524.328 138.206   6
   3   6 -11 1118.18 168.430   4
   3   6 -11 1061.97 171.713   6
  -3   6  11 881.308 161.118   2
  -3   6  10 4061.46 306.258   2
   3   6 -10 4806.36 316.956   4
   3   6 -10 4908.70 322.913   6
   3   6  -9 485.266 123.684   6
   3   6  -9 414.619 45.6246   2
  -3   6   9 335.715 115.461   2
   3   6  -9 601.649 130.825   4
   3   6  -8 618.846 128.870   4
  -3   6   8 586.240 127.812   2
   3   6  -8 515.340 59.5659   2
   3   6  -8 506.192 112.926   6
   3   6  -8 593.082 60.2997   2
  -3   6   7 208.513 98.3367   2
   3   6  -7 269.868 54.5868   2
   3   6  -7 342.032 109.622   4
   3   6  -7 236.787 91.0855   6
   3   6  -6 160.381 57.3946   2
   3   6  -6 168.095 75.9669   6
  -3   6   6 100.255 87.6187   2
   3   6  -5 226.309 60.4178   2
   3   6  -5 214.613 83.2326   6
  -3   6   5 298.004 99.0223   2
   3   6  -4 395.375 81.7716   2
  -3   6   4 394.465 113.869   2
   3   6  -3 887.831 108.641   2
  -3   6   3 774.891 118.176   2
  -3   6   2 160.757 76.4804   2
   3   6  -2 99.0602 70.6763   2
  -3   6   1 124.504 64.7659   2
   3   6  -1 44.3015 63.5809   2
   3   6   0 792.110 119.425   2
  -3   6   0 858.342 96.1956   2
  -3   6  -1 253.872 85.1091   6
  -3   6  -1 351.749 60.4800   2
   3   6   1 331.305 99.3628   2
  -3   6  -1 371.037 106.039   4
  -3   6  -2 104.737 82.3639   4
   3   6   2 363.665 96.5395   2
  -3   6  -2 256.590 89.9231   6
  -3   6  -2 202.430 36.0472   2
  -3   6  -3 118.016 87.8238   4
  -3   6  -3 53.5011 69.0078   6
  -3   6  -4 316.258 95.4389   6
  -3   6  -4 116.799 78.2647   4
   3   6   4 199.013 91.0742   2
  -3   6  -5 791.010 126.786   6
   3   6   5 586.640 129.657   2
  -3   6  -5 709.005 133.087   4
  -3   6  -6 454.134 102.234   6
  -3   6  -6 282.944 95.5017   4
   3   6   6 414.378 121.244   2
   3   6   7 4857.04 328.482   2
  -3   6  -7 4438.19 289.785   6
  -3   6  -7 4480.96 315.146   4
  -3   6  -8 1120.66 184.421   4
  -3   6  -8 997.002 166.379   6
   3   6   8 1074.67 181.626   2
  -3   6  -9 351.602 119.680   4
   3   6   9 343.925 134.837   2
  -3   6  -9 229.831 107.131   6
   3   6  10 96.9945 102.945   2
  -3   6 -10 56.1161 110.198   6
  -3   6 -10 371.486 126.540   4
  -3   6 -11 359.494 105.481   6
   3   6  11 191.803 113.528   2
  -3   6 -12 397.729 138.904   6
   3   7 -13 176.740 118.392   6
  -3   7  13-41.1124 116.594   2
   3   7 -13 117.963 113.096   4
   3   7 -12 1554.57 215.341   6
  -3   7  12 1270.61 206.521   2
   3   7 -12 1599.78 209.974   4
   3   7 -11 480.011 141.494   4
   3   7 -11 571.287 152.596   6
  -3   7  11 537.241 166.783   2
  -3   7  10 588.789 144.854   2
   3   7 -10 588.024 151.618   4
   3   7 -10 543.775 136.267   6
   3   7  -9 1028.43 167.928   6
   3   7  -9 1053.46 180.767   4
  -3   7   9 1086.29 186.637   2
  -3   7   8 1206.50 182.372   2
   3   7  -8 1618.64 203.299   4
   3   7  -8 1609.03 200.356   6
  -3   7   7 95.6912 93.3121   2
   3   7  -7 75.9029 79.5976   6
   3   7  -7 181.081 105.540   4
   3   7  -7 140.608 53.7039   2
   3   7  -6 570.463 118.651   6
  -3   7   6 508.318 121.692   2
   3   7  -6 559.635 78.4964   2
   3   7  -5 283.634 105.705   6
  -3   7   5 306.505 100.393   2
   3   7  -5 331.213 76.2941   2
  -3   7   4 881.899 131.073   2
   3   7  -4 682.336 102.242   2
   3   7  -3 560.003 96.6725   2
  -3   7   3 617.168 109.441   2
  -3   7   2 333.899 93.1365   2
   3   7  -2 256.969 72.4943   2
   3   7  -1 342.295 92.0498   2
  -3   7   1 402.992 92.3298   2
  -3   7   0 558.920 84.5898   2
   3   7   0 668.311 119.718   2
  -3   7  -1 510.787 115.773   4
  -3   7  -1 566.953 73.8125   2
  -3   7  -1 775.569 132.156   6
   3   7   1 766.346 128.469   2
  -3   7  -2 115.835 76.5424   6
  -3   7  -2 187.664 37.3565   2
  -3   7  -2 226.206 103.444   4
   3   7   2 332.068 108.952   2
  -3   7  -3 456.510 112.788   6
  -3   7  -3 368.594 106.265   4
   3   7   3 640.796 140.741   2
  -3   7  -4 137.525 73.8481   6
  -3   7  -4 198.388 114.281   4
   3   7   4 92.1000 88.4523   2
  -3   7  -5 1592.95 202.825   4
  -3   7  -5 1392.47 175.734   6
   3   7   5 1525.06 194.607   2
  -3   7  -6 1315.04 175.937   6
  -3   7  -6 1110.39 180.085   4
   3   7   6 958.114 168.633   2
  -3   7  -7 454.880 129.322   6
  -3   7  -7 754.427 161.411   4
   3   7   7 744.650 171.393   2
  -3   7  -8 570.845 156.017   4
  -3   7  -8 474.754 168.463   6
   3   7   8 507.096 154.253   2
  -3   7  -9 1433.90 213.995   4
   3   7   9 1591.75 232.741   2
  -3   7  -9 1504.45 220.422   6
   3   7  10-122.221 132.872   2
  -3   7 -10 135.333 97.8393   6
  -3   7 -10-2.31557 103.068   4
  -3   7 -11 464.837 144.329   6
  -3   8  11 848.109 183.300   2
  -3   8  10 456.331 156.779   2
   3   8 -10 627.550 157.861   6
   3   8 -10 606.024 155.056   4
  -3   8   9 693.015 157.166   2
   3   8  -9 951.365 177.702   4
   3   8  -9 625.749 152.238   6
   3   8  -8 1663.29 210.512   6
   3   8  -8 1311.09 197.318   4
  -3   8   8 1675.58 217.938   2
  -3   8   7-70.9163 111.134   2
   3   8  -7 87.1302 98.9413   6
   3   8  -7 78.5440 109.101   4
  -3   8   6 1706.44 204.416   2
   3   8  -6 2103.75 233.950   6
  -3   8   5 139.292 96.9354   2
   3   8  -5 5.10630 117.482   6
  -3   8   4 645.498 129.565   2
   3   8  -4 252.889 76.9173   2
  -3   8   3 129.766 94.3557   2
   3   8  -3 123.742 83.0909   2
  -3   8   2 183.479 76.6484   2
   3   8  -2 178.632 80.2563   2
  -3   8   1 372.636 91.4750   2
   3   8  -1 244.246 93.2740   2
  -3   8   0 306.150 84.7002   2
   3   8   0 147.930 97.5868   2
  -3   8  -1 578.802 135.666   4
  -3   8  -1 590.459 133.850   6
   3   8   1 384.489 121.527   2
  -3   8  -2 36.4479 91.1154   6
  -3   8  -2 219.651 111.947   4
   3   8   2 168.926 99.3627   2
  -3   8  -3 2312.98 254.536   4
  -3   8  -3 1914.18 203.826   6
   3   8   3 2288.46 235.020   2
  -3   8  -4 64.5288 90.8762   6
  -3   8  -4 49.3129 101.371   4
   3   8   4 45.2337 99.9946   2
  -3   8  -5 1388.83 189.741   6
  -3   8  -5 2134.63 245.658   4
   3   8   5 1501.20 209.444   2
   3   8   6 529.830 159.900   2
  -3   8  -6 417.867 144.571   4
  -3   8  -6 470.114 152.817   6
   3   8   7 543.298 170.258   2
  -3   8  -7 556.155 143.468   4
  -3   8  -7 851.713 185.323   6
   3   8   8 1045.09 210.650   2
  -3   8  -8 1285.70 206.603   6
  -3   8  -9 248.072 108.941   6
  -3   9   9 519.895 169.285   2
  -3   9   8 770.478 186.720   2
   3   9  -7 314.506 127.253   6
  -3   9   7 174.810 131.649   2
  -3   9   6 1599.29 214.120   2
   3   9  -6 2206.13 256.956   6
   3   9  -5 570.571 169.234   6
  -3   9   5 370.111 121.786   2
  -3   9   4 1098.11 167.890   2
   3   9  -4 1028.52 182.873   6
  -3   9   3 138.333 86.1034   2
   3   9  -2 164.534 93.9055   2
   3   9  -1-37.1770 82.6050   2
   3   9   0 131.038 105.192   2
  -3   9   0 37.6971 133.549   6
  -3   9   0-145.238 123.729   4
  -3   9  -1 1075.91 193.368   4
  -3   9  -1 1270.15 201.490   6
   3   9   1 1256.31 183.358   2
  -3   9  -2 394.437 152.758   4
  -3   9  -2 834.347 204.383   6
   3   9   2 597.696 141.536   2
   3   9   3 1985.75 250.847   2
  -3   9  -3 2036.26 254.713   4
  -3   9  -3 1819.54 242.474   6
   3   9   4 274.075 149.277   2
  -3   9  -4 93.3951 130.148   6
  -3   9  -4 321.551 149.093   4
  -3   9  -5 735.658 170.619   6
   3   9   5 537.744 159.336   2
   3   9   6 671.996 173.152   2
  -3   9  -6 276.231 117.762   6
  -3   9  -7 360.207 119.743   6
  -3  10   7 41.4976 130.174   2
  -3  10   1 169.592 116.225   6
  -3  10   0 752.357 168.125   6
  -3  10  -1 531.911 168.561   6
  -3  10  -2 362.895 155.038   6
   3  10   2 154.717 127.539   2
   3  10   3 744.951 172.615   2
   4  -9 -11 408.886 141.486   3
   4  -9 -10 1563.86 232.152   3
   4  -9  -9 637.569 152.321   3
   4  -9  -8-131.462 126.938   3
   4  -9  -7 81.7064 109.932   3
  -4  -9   6 4778.23 388.011   5
   4  -9  -6 4765.65 373.334   3
   4  -9  -5 42.3818 102.448   3
  -4  -9   5 141.778 120.111   5
   4  -9  -4 5975.80 409.503   3
  -4  -9   4 5548.05 397.114   5
   4  -9  -3 993.570 199.338   3
  -4  -9   3 1038.35 189.938   5
  -4  -9   2 836.570 194.161   7
   4  -9  -2 733.906 165.824   3
  -4  -9   2 861.091 190.306   5
   4  -9  -1 1323.69 209.828   3
  -4  -9   1 1000.23 212.939   7
  -4  -9   1 1345.76 205.799   5
  -4  -9   0 5072.18 408.597   7
  -4  -9   0 6200.03 420.242   5
   4  -9   0 5791.75 418.634   3
  -4  -9  -1 57.7374 125.855   7
   4  -9   1 279.929 134.732   3
  -4  -9  -1 100.129 126.714   5
   4  -9   2 4139.38 351.740   3
  -4  -9  -2 5023.71 410.137   7
  -4  -9  -2 4543.23 356.772   5
  -4  -9  -3 222.181 131.833   5
   4  -9   3 52.8943 115.617   5
   4  -9   4 106.744 126.829   5
  -4  -9  -4-50.9145 134.106   5
  -4  -9  -5 318.604 141.487   5
  -4  -9  -6 1824.08 240.361   5
   4  -8 -12 966.573 217.889   7
  -4  -8  12 964.036 195.729   5
   4  -8 -11 551.426 176.888   7
  -4  -8  11 709.274 148.062   5
   4  -8 -11 700.114 173.152   3
  -4  -8  10 512.155 169.030   5
   4  -8 -10 722.505 170.696   3
   4  -8 -10 226.947 130.188   7
  -4  -8   9 1018.50 189.030   5
   4  -8  -9 1197.93 200.764   3
   4  -8  -9 993.101 210.254   7
   4  -8  -8 6160.60 392.182   3
  -4  -8   8 6167.49 406.450   5
   4  -8  -7-11.9433 110.937   3
  -4  -8   7 152.985 107.326   5
   4  -8  -6 3210.77 284.005   3
  -4  -8   6 3346.57 295.632   5
  -4  -8   5 524.260 139.059   5
   4  -8  -5 653.792 147.381   3
  -4  -8   4 324.147 119.931   5
   4  -8  -4 382.962 142.076   3
   4  -8  -3 597.568 153.182   3
  -4  -8   3 601.207 156.718   5
  -4  -8   2 4910.89 349.071   5
   4  -8  -2 5293.29 360.257   3
  -4  -8   1 511.010 155.828   7
   4  -8  -1 441.716 132.533   3
  -4  -8   1 771.430 163.053   5
  -4  -8   0 407.060 127.826   5
   4  -8   0 505.945 135.620   3
  -4  -8   0 258.653 137.167   7
  -4  -8  -1 816.921 166.984   5
   4  -8   1 732.828 158.535   3
  -4  -8  -1 758.259 177.713   7
   4  -8   2 3562.96 312.869   3
  -4  -8  -2 3896.81 312.001   5
  -4  -8  -2 3375.82 308.440   7
   4  -8   3-93.5604 114.202   3
  -4  -8  -3 156.039 115.045   5
  -4  -8  -3 87.3173 134.967   7
   4  -8   4 6212.28 394.697   5
  -4  -8  -4 5444.46 412.042   7
   4  -8   4 6774.85 425.306   3
  -4  -8  -4 6034.73 377.344   5
  -4  -8  -5 444.957 132.187   5
   4  -8   5 722.797 153.788   5
   4  -8   5 1088.74 192.232   3
  -4  -8  -5 847.065 185.415   7
   4  -8   6 422.601 132.807   5
  -4  -8  -6 528.790 140.679   5
  -4  -8  -6 638.017 166.030   7
   4  -8   6 500.292 145.325   3
   4  -8   7 643.034 157.415   3
   4  -8   7 386.077 128.213   5
  -4  -8  -7 678.673 149.018   5
   4  -8   8 1252.49 202.937   5
   4  -8   8 949.726 193.723   3
   4  -8   9 287.859 136.693   5
   4  -7 -15 266.502 118.448   7
  -4  -7  15 373.816 131.812   5
   4  -7 -14-110.206 164.608   7
  -4  -7  14 223.374 132.618   5
  -4  -7  13 287.166 129.167   5
   4  -7 -13 258.400 118.247   7
  -4  -7  12 2622.70 269.560   5
   4  -7 -12 2316.65 220.048   3
   4  -7 -12 2139.47 260.784   7
   4  -7 -11 523.905 152.375   7
  -4  -7  11 498.472 133.812   5
   4  -7 -11 769.502 142.500   3
   4  -7 -10 2406.94 233.511   3
   4  -7 -10 2322.78 262.255   7
  -4  -7  10 2731.03 267.705   5
   4  -7  -9 1102.54 192.431   7
  -4  -7   9 1100.95 176.366   5
   4  -7  -9 1105.23 165.580   3
   4  -7  -8 495.104 121.947   3
  -4  -7   8 567.376 142.882   5
   4  -7  -7 245.529 95.6329   3
  -4  -7   7 159.734 103.674   5
   4  -7  -6 3233.38 264.634   3
  -4  -7   6 3007.48 264.969   5
  -4  -7   5 195.089 63.9015   1
   4  -7  -5 325.356 111.457   3
  -4  -7   5 201.815 114.251   5
  -4  -7   4 2846.10 187.806   1
   4  -7  -4 3297.05 264.807   3
  -4  -7   4 3159.85 262.119   5
  -4  -7   3 639.387 104.076   1
   4  -7  -3 753.692 139.037   3
  -4  -7   3 848.515 145.347   5
  -4  -7   2-12.4073 82.7134   5
   4  -7  -2 286.453 120.644   3
   4  -7  -2 140.093 69.8925   2
  -4  -7   1 929.794 150.537   5
   4  -7  -1 732.605 137.794   3
   4  -7  -1 789.870 99.6978   2
   4  -7   0 3027.82 259.775   3
  -4  -7   0 2726.26 257.276   7
  -4  -7   0 3061.66 247.688   5
  -4  -7  -1 39.2065 100.846   7
   4  -7   1 215.461 112.086   3
  -4  -7  -1 259.098 89.4961   5
  -4  -7  -2 3283.53 259.129   5
   4  -7   2 3600.01 280.382   3
  -4  -7  -2 3159.25 283.020   7
  -4  -7  -3-65.9665 87.1112   5
   4  -7   3 195.602 99.7018   3
  -4  -7  -3 156.399 98.2504   7
   4  -7   4 862.954 165.103   3
  -4  -7  -4 495.914 145.887   7
  -4  -7  -4 410.694 113.600   5
  -4  -7  -5 1074.00 152.809   5
   4  -7   5 1034.30 161.239   5
  -4  -7  -5 803.088 174.096   7
   4  -7   5 1001.78 172.412   3
   4  -7   6 2763.20 262.277   3
  -4  -7  -6 2516.71 271.979   7
  -4  -7  -6 2535.43 225.491   5
   4  -7   6 2223.43 227.284   5
  -4  -7  -7 694.538 133.030   5
   4  -7   7 710.663 150.328   5
  -4  -7  -7 705.274 182.366   7
   4  -7   7 790.378 158.975   3
   4  -7   8 2350.14 239.669   3
  -4  -7  -8 2050.16 195.217   5
  -4  -7  -8 1790.17 257.003   7
   4  -7   8 2215.51 229.117   5
  -4  -7  -9 398.043 159.767   7
   4  -7   9 249.630 117.055   3
   4  -7   9 453.280 130.087   5
   4  -7  10 192.616 93.9342   5
   4  -6 -17 721.645 171.767   7
   4  -6 -16 379.441 147.110   7
  -4  -6  16 330.769 120.806   5
   4  -6 -15 251.580 131.262   7
  -4  -6  15 292.626 123.765   5
  -4  -6  14 935.686 174.550   5
   4  -6 -14 547.035 148.780   7
   4  -6 -13 61.1651 104.887   7
   4  -6 -13 206.293 84.7402   3
  -4  -6  13 244.498 109.087   5
   4  -6 -12 187.150 112.295   7
   4  -6 -12 171.232 86.6665   3
  -4  -6  12 292.300 116.313   5
   4  -6 -11 802.325 157.634   7
   4  -6 -11 700.704 121.850   3
  -4  -6  11 844.105 151.419   5
   4  -6 -10 2928.76 266.289   7
  -4  -6  10 2893.12 254.416   5
   4  -6 -10 2964.64 226.702   3
   4  -6  -9 289.573 119.180   7
  -4  -6   9 198.657 81.5573   5
   4  -6  -9 225.377 95.1982   3
   4  -6  -8 2563.47 213.529   3
  -4  -6   8 2842.41 237.994   5
  -4  -6   7 245.496 43.4791   1
   4  -6  -7 171.827 90.2319   3
  -4  -6   7 271.507 88.6432   5
  -4  -6   6 937.014 86.3911   1
   4  -6  -6 805.661 129.841   3
  -4  -6   6 1184.09 160.912   5
   4  -6  -5 1712.43 180.284   3
  -4  -6   5 1524.20 180.925   5
  -4  -6   5 1486.06 115.513   1
  -4  -6   4 9715.89 298.296   1
   4  -6  -4 9784.92 354.303   2
  -4  -6   4 9330.92 401.477   5
   4  -6  -4 9562.95 405.226   3
   4  -6  -3 517.756 123.336   3
   4  -6  -3 279.069 77.7499   2
  -4  -6   3 280.544 78.6868   1
  -4  -6   3 398.395 107.872   5
   4  -6  -2 11710.8 355.732   2
  -4  -6   2 12714.1 386.606   1
   4  -6  -2 13895.4 488.768   3
  -4  -6   2 12992.1 463.648   5
   4  -6  -1 467.150 115.788   3
   4  -6  -1 396.777 78.2116   2
  -4  -6   1 276.566 87.7889   1
  -4  -6   1 317.392 103.575   5
   4  -6   0 9243.83 258.576   2
  -4  -6   0 9063.49 384.690   5
   4  -6   0 9700.78 413.809   3
  -4  -6   0 9277.67 417.312   7
  -4  -6  -1 1518.16 170.299   5
   4  -6   1 1261.04 86.8285   2
   4  -6   1 1441.46 176.896   3
  -4  -6  -1 1550.01 186.988   7
  -4  -6  -2 757.552 119.933   5
   4  -6   2 642.209 49.2825   2
  -4  -6  -2 615.001 142.196   7
   4  -6   2 526.897 118.177   3
  -4  -6  -3 124.666 71.8650   5
   4  -6   3 185.678 100.826   3
   4  -6   4 2428.11 218.814   3
  -4  -6  -4 2708.60 211.847   5
  -4  -6  -4 2872.37 255.114   7
  -4  -6  -5 196.130 81.1736   5
  -4  -6  -5 353.257 115.679   7
   4  -6   5 337.299 104.859   3
  -4  -6  -6 3006.55 216.319   5
  -4  -6  -6 2963.31 272.414   7
   4  -6   6 3001.94 247.793   3
   4  -6   6 2833.72 235.188   5
  -4  -6  -7 849.164 122.601   5
   4  -6   7 967.967 142.804   5
  -4  -6  -7 841.665 166.755   7
   4  -6   7 790.547 131.281   3
   4  -6   8 280.024 99.5077   5
  -4  -6  -8 227.660 114.876   7
   4  -6   8 474.168 114.650   3
  -4  -6  -8 400.893 93.4258   5
   4  -6   9 73.1505 84.5420   3
  -4  -6  -9-73.0027 134.532   7
   4  -6   9 198.284 98.9647   5
  -4  -6 -10 461.618 142.949   7
   4  -6  10 1147.33 157.322   5
  -4  -6 -11-47.3665 122.488   7
   4  -5 -17 170.847 123.945   7
  -4  -5  16 1239.23 179.455   5
   4  -5 -16 1130.77 188.551   7
   4  -5 -15 729.404 155.637   7
  -4  -5  15 599.490 122.803   5
   4  -5 -14 628.347 138.332   7
  -4  -5  14 547.992 121.838   5
   4  -5 -13 550.503 142.990   7
   4  -5 -13 561.113 96.2693   3
  -4  -5  13 443.340 117.943   5
   4  -5 -12 4587.37 310.313   7
   4  -5 -12 5335.79 267.536   3
  -4  -5  12 5404.81 320.405   5
   4  -5 -11 645.210 126.584   7
  -4  -5  11 574.926 128.435   5
   4  -5 -11 522.954 102.225   3
   4  -5 -10 7674.71 371.151   7
  -4  -5  10 7952.31 375.072   5
   4  -5 -10 7783.31 324.161   3
   4  -5  -9 1406.21 179.056   7
   4  -5  -9 1511.88 154.748   3
  -4  -5   9 1400.06 173.444   5
   4  -5  -8 2653.43 197.865   3
  -4  -5   8 2527.56 214.075   5
   4  -5  -7 358.508 90.6570   3
  -4  -5   7 472.237 102.469   5
  -4  -5   6 10177.7 389.017   5
  -4  -5   6 10166.3 216.552   1
   4  -5  -6 10461.3 381.080   3
   4  -5  -5 2489.79 195.590   3
   4  -5  -5 2548.06 183.787   2
  -4  -5   5 2309.40 122.975   1
  -4  -5   5 2358.72 196.376   5
  -4  -5   4 10899.7 282.302   1
   4  -5  -4 11127.8 397.880   3
   4  -5  -4 10626.2 339.699   2
  -4  -5   4 10957.1 392.320   5
  -4  -5   3 294.713 69.9856   1
   4  -5  -3 314.913 83.5226   3
   4  -5  -3 306.555 75.6574   2
  -4  -5   3 281.713 83.4036   5
   4  -5  -2 4226.48 247.721   3
   4  -5  -2 4406.31 197.158   2
  -4  -5   2 4343.93 248.312   5
  -4  -5   2 4151.72 200.617   1
  -4  -5   1 283.959 89.1620   5
   4  -5  -1 243.418 60.6736   2
   4  -5  -1 260.137 90.5179   3
  -4  -5   1 377.624 89.8289   1
   4  -5   0 11090.5 256.759   2
  -4  -5   0 10367.4 348.573   1
  -4  -5   0 11110.0 412.169   7
   4  -5   0 11189.0 398.344   3
  -4  -5   0 10619.3 366.856   5
   4  -5   1 2704.60 111.005   2
  -4  -5  -1 2773.64 216.482   7
   4  -5   1 2821.00 207.368   3
  -4  -5  -1 2551.97 188.053   1
  -4  -5  -1 2893.38 195.111   5
   4  -5   2 10750.6 399.741   3
   4  -5   2 9335.08 149.551   2
  -4  -5  -2 11456.9 427.932   7
  -4  -5  -2 10406.2 359.945   5
  -4  -5  -3 347.646 87.1972   5
  -4  -5  -3 574.934 127.493   7
   4  -5   3 364.489 91.1442   3
  -4  -5  -4 2530.55 184.269   5
   4  -5   4 2586.99 207.554   3
  -4  -5  -4 2580.13 225.373   7
   4  -5   5 1463.88 162.980   3
  -4  -5  -5 1641.81 189.494   7
  -4  -5  -5 1413.27 137.217   5
  -4  -5  -6 7763.20 399.506   7
   4  -5   6 9126.46 382.221   3
   4  -5   6 8261.38 346.547   5
  -4  -5  -6 8820.96 316.778   5
  -4  -5  -7 682.678 97.8181   5
   4  -5   7 673.379 118.355   5
  -4  -5  -7 902.853 155.835   7
   4  -5   7 790.960 126.299   3
  -4  -5  -8 4712.69 334.863   7
  -4  -5  -8 5249.84 242.071   5
   4  -5   8 5179.86 292.355   3
   4  -5   8 5126.46 281.445   5
   4  -5   9 276.696 96.8427   3
   4  -5   9 415.906 78.6582   1
  -4  -5  -9 395.825 133.382   7
  -4  -5  -9 573.681 87.9233   5
   4  -5   9 464.171 101.297   5
   4  -5  10 538.446 102.670   5
  -4  -5 -10 481.981 137.689   7
   4  -5  10 345.484 100.298   3
  -4  -5 -11 818.870 159.249   7
  -4  -5 -12 1145.81 202.879   7
  -4  -5 -13-7.67920 127.667   7
   4  -4 -18-47.3714 100.305   7
   4  -4 -17 1261.74 176.338   7
  -4  -4  16 984.056 153.316   5
   4  -4 -16 843.176 149.991   7
  -4  -4  15 802.508 135.339   5
   4  -4 -15 695.558 138.996   7
   4  -4 -14 6879.37 250.616   3
  -4  -4  14 7094.22 354.872   5
   4  -4 -14 7088.12 361.233   7
   4  -4 -13 671.891 120.218   7
  -4  -4  13 642.473 126.305   5
   4  -4 -13 584.287 90.6922   3
  -4  -4  13 670.242 99.8828   7
   4  -4 -12 4109.58 262.391   7
   4  -4 -12 3826.38 200.262   3
  -4  -4  12 3673.95 251.655   5
   4  -4 -11 780.410 136.750   7
   4  -4 -11 659.120 94.2601   3
  -4  -4  11 667.760 115.731   5
   4  -4 -10 2265.46 192.065   7
   4  -4 -10 2212.10 165.159   3
   4  -4 -10 2241.18 180.449   5
  -4  -4  10 2184.08 194.094   5
   4  -4  -9 600.290 96.1637   3
   4  -4  -9 870.444 132.250   7
   4  -4  -9 653.651 114.448   5
  -4  -4   9 605.533 113.018   5
   4  -4  -8 32698.2 602.263   3
   4  -4  -8 32675.1 647.155   5
  -4  -4   8 31791.4 657.157   5
   4  -4  -7 3507.89 202.982   3
   4  -4  -7 3298.30 217.816   2
  -4  -4   7 3317.45 211.643   5
   4  -4  -6 22688.1 503.597   3
   4  -4  -6 23268.8 523.069   2
  -4  -4   6 23095.7 527.919   5
   4  -4  -5 947.422 116.894   3
   4  -4  -5 887.899 108.317   2
  -4  -4   5 807.056 62.1501   1
  -4  -4   5 799.276 103.015   5
  -4  -4   4 1119.82 83.3169   1
   4  -4  -4 1043.24 121.574   3
   4  -4  -4 1324.34 120.309   2
  -4  -4   4 1087.83 122.978   5
   4  -4  -3 1105.29 105.377   2
   4  -4  -3 913.318 111.660   3
  -4  -4   3 942.066 83.8486   1
  -4  -4   3 1043.54 120.623   5
  -4  -4   2 30103.2 470.765   1
   4  -4  -2 29335.3 576.670   3
   4  -4  -2 29676.4 461.218   2
  -4  -4   2 29272.3 555.788   5
  -4  -4   1 1126.26 127.009   7
   4  -4  -1 957.894 81.4201   2
   4  -4  -1 1091.80 119.854   3
  -4  -4   1 949.897 97.5638   1
  -4  -4   1 1071.57 114.175   5
  -4  -4   0 1135.46 118.239   5
   4  -4   0 1279.12 133.017   3
  -4  -4   0 1051.23 129.246   7
  -4  -4   0 1339.98 120.053   1
   4  -4   0 1150.70 80.7783   2
  -4  -4  -1 949.958 108.345   5
   4  -4   1 994.801 64.3229   2
  -4  -4  -1 787.127 103.744   2
  -4  -4  -1 1029.13 127.346   7
   4  -4   1 770.978 104.680   3
  -4  -4  -1 748.102 101.947   1
  -4  -4  -2 22036.6 512.511   2
  -4  -4  -2 22242.1 504.651   1
  -4  -4  -2 21013.3 528.485   7
   4  -4   2 20246.1 203.304   2
   4  -4   2 22136.1 514.007   3
  -4  -4  -2 21989.5 456.810   5
  -4  -4  -3 3656.10 236.668   7
   4  -4   3 3641.17 212.571   3
  -4  -4  -3 3488.15 187.967   5
   4  -4   4 34116.5 647.096   3
  -4  -4  -4 31769.7 689.174   7
  -4  -4  -4 34267.3 551.062   5
  -4  -4  -5 696.528 92.0139   5
   4  -4   5 608.314 103.209   3
  -4  -4  -5 884.356 139.098   7
  -4  -4  -6 1762.82 187.286   7
   4  -4   6 1865.60 166.216   3
  -4  -4  -6 2259.57 144.144   5
   4  -4   7 682.036 98.9286   5
  -4  -4  -7 630.260 133.427   7
   4  -4   7 783.200 115.456   3
  -4  -4  -7 604.029 78.2555   5
  -4  -4  -8 4562.24 184.822   5
   4  -4   8 4226.74 237.054   3
   4  -4   8 3944.96 192.155   1
  -4  -4  -8 4270.25 290.099   7
   4  -4   8 4419.14 227.506   5
   4  -4   9 532.157 99.1040   3
   4  -4   9 705.972 95.9628   1
  -4  -4  -9 714.405 139.611   7
   4  -4   9 545.056 88.0207   5
  -4  -4  -9 604.139 69.2510   5
   4  -4  10 7179.75 275.769   1
  -4  -4 -10 6587.08 390.703   7
   4  -4  10 7359.93 288.973   5
   4  -4  10 6654.87 298.711   3
  -4  -4 -11 832.316 164.018   7
   4  -4  11 672.064 99.2477   1
  -4  -4 -12 961.091 188.639   7
  -4  -4 -13 1069.89 179.231   7
  -4  -4 -14-241.246 114.882   7
   4  -3 -18 716.777 138.870   7
   4  -3 -17 321.943 97.1514   7
  -4  -3  16 2236.81 190.622   5
   4  -3 -16 2206.14 206.164   7
  -4  -3  15 1482.27 158.676   5
   4  -3 -15 1708.71 175.021   7
   4  -3 -14 752.647 126.720   7
   4  -3 -14 637.972 75.6670   3
   4  -3 -14 466.674 91.1841   5
  -4  -3  14 641.160 111.889   5
  -4  -3  13 926.068 106.588   7
   4  -3 -13 1003.72 93.7002   3
   4  -3 -13 1132.05 136.792   7
   4  -3 -13 1258.73 136.009   5
  -4  -3  13 1007.90 130.826   5
  -4  -3  12 6251.30 239.744   7
   4  -3 -12 6076.63 290.789   7
  -4  -3  12 6261.37 291.309   5
   4  -3 -12 6196.44 280.294   5
   4  -3 -12 5882.85 223.146   3
   4  -3 -11 1656.27 159.583   7
  -4  -3  11 1723.66 161.335   5
  -4  -3  11 1615.17 122.395   7
   4  -3 -11 1633.59 146.062   5
   4  -3 -11 1606.70 123.470   3
  -4  -3  10 15238.5 431.133   5
   4  -3 -10 15000.8 362.772   3
   4  -3 -10 14292.5 404.416   7
   4  -3 -10 15481.5 416.465   5
  -4  -3   9 587.722 100.239   5
   4  -3  -9 647.848 93.2843   5
   4  -3  -9 659.483 105.049   7
   4  -3  -9 471.423 76.5839   3
   4  -3  -8 130.823 80.9389   7
   4  -3  -8 155.869 70.2096   5
  -4  -3   8 86.3183 53.2259   5
   4  -3  -8 208.941 56.9420   3
   4  -3  -8 175.247 73.5284   2
   4  -3  -7 1269.72 124.825   5
  -4  -3   7 1159.61 122.961   5
   4  -3  -7 1152.79 108.840   3
   4  -3  -7 1283.33 132.302   2
   4  -3  -6 42367.6 656.048   2
   4  -3  -6 42428.2 642.317   5
   4  -3  -6 41396.9 601.288   3
  -4  -3   6 41489.0 644.244   5
   4  -3  -5 6093.38 238.384   2
  -4  -3   5 6055.24 243.331   5
   4  -3  -5 5589.93 226.447   3
   4  -3  -4 63891.4 714.644   2
   4  -3  -4 64341.0 749.526   3
  -4  -3   4 62666.4 499.012   1
  -4  -3   4 62365.9 750.433   5
  -4  -3   3 511.393 56.2123   1
   4  -3  -3 617.988 76.4420   2
   4  -3  -3 634.531 87.4796   3
  -4  -3   3 617.496 86.7320   5
   4  -3  -2 48.3773 42.2450   2
  -4  -3   2 89.0299 50.3403   7
  -4  -3   2-14.2911 40.2698   1
   4  -3  -2 56.3052 50.8086   3
  -4  -3   2 39.2259 46.2976   5
   4  -3  -1 551.516 64.3106   2
  -4  -3   1 404.302 64.6394   1
  -4  -3   1 496.701 79.3508   5
   4  -3  -1 499.849 83.8453   3
  -4  -3   1 548.665 86.3031   7
  -4  -3   0 64241.7 702.378   1
   4  -3   0 65373.5 512.426   2
   4  -3   0 64060.2 767.126   3
  -4  -3   0 63046.2 757.393   7
  -4  -3   0 65945.6 701.492   5
   4  -3   1 6222.30 241.428   3
  -4  -3  -1 5839.01 236.712   2
  -4  -3  -1 5825.64 207.963   5
  -4  -3  -1 6166.19 236.589   1
  -4  -3  -1 5846.10 243.285   7
   4  -3   1 6283.35 140.203   2
  -4  -3  -2 41560.8 670.484   7
  -4  -3  -2 41471.2 638.214   1
  -4  -3  -2 42849.8 651.965   2
   4  -3   2 42241.6 308.674   2
   4  -3   2 42584.7 636.906   3
  -4  -3  -2 43291.1 545.221   5
  -4  -3  -3 1425.24 132.425   2
   4  -3   3 1482.59 113.929   6
   4  -3   3 1041.58 42.3149   2
  -4  -3  -3 1155.25 123.923   1
   4  -3   3 1447.73 129.547   4
  -4  -3  -3 1209.90 129.202   7
   4  -3   3 1503.31 125.158   3
  -4  -3  -3 1358.22 100.284   5
   4  -3   3 1274.67 46.0381   2
  -4  -3  -4 64.3678 67.7874   7
   4  -3   4 82.2839 49.4716   6
   4  -3   4 216.627 68.5645   3
  -4  -3  -4 84.3037 64.2307   2
   4  -3   4-28.5757 68.1168   4
  -4  -3  -4 220.908 82.5568   1
  -4  -3  -4 106.807 41.1425   5
  -4  -3  -5 391.591 56.5784   5
  -4  -3  -5 715.704 115.522   7
   4  -3   5 704.967 95.0693   6
   4  -3   5 548.734 89.6645   3
   4  -3   6 14707.4 381.679   3
  -4  -3  -6 14626.5 283.558   5
   4  -3   6 14759.3 414.506   6
   4  -3   6 13587.3 173.220   2
  -4  -3  -6 14747.7 471.013   7
   4  -3   6 15127.8 353.460   5
   4  -3   7 1609.62 123.619   5
   4  -3   7 1537.68 70.4741   2
   4  -3   7 1704.37 143.520   3
  -4  -3  -7 1532.29 174.134   7
   4  -3   7 1783.80 131.174   1
  -4  -3  -7 1527.19 91.5360   5
  -4  -3  -8 5988.85 156.569   5
  -4  -3  -8 6376.75 338.405   7
   4  -3   8 6409.58 232.505   5
   4  -3   8 6780.34 252.792   1
   4  -3   8 6479.95 259.973   3
  -4  -3  -8 5652.27 159.402   5
   4  -3   8 6333.70 154.889   2
  -4  -3  -9 1211.82 171.284   7
   4  -3   9 1126.70 118.440   1
  -4  -3  -9 489.702 37.7111   5
   4  -3   9 1095.15 112.434   3
   4  -3   9 1163.92 103.578   5
   4  -3   9 1186.24 79.5642   2
  -4  -3 -10 509.674 125.356   7
   4  -3  10 703.622 85.1820   5
   4  -3  10 721.588 70.6936   2
   4  -3  10 708.043 102.707   1
   4  -3  11 1553.38 147.494   1
  -4  -3 -11 1586.50 202.423   7
   4  -3  12 2052.23 171.315   1
  -4  -3 -12 2040.06 236.956   7
  -4  -3 -13 172.127 113.962   7
  -4  -3 -14 774.472 170.676   7
  -4  -3 -15 848.033 182.350   7
   4  -2 -17 833.678 134.833   7
  -4  -2  16 860.086 119.606   5
   4  -2 -16 898.290 129.408   7
   4  -2 -15 333.155 88.5893   7
  -4  -2  15 422.811 89.5892   5
   4  -2 -15 575.215 100.074   5
  -4  -2  14 2679.88 185.878   5
   4  -2 -14 2728.57 191.205   7
  -4  -2  14 2957.28 175.762   7
   4  -2 -14 2177.67 111.662   3
   4  -2 -14 2695.68 177.928   5
   4  -2 -13 455.308 89.8859   7
   4  -2 -13 462.725 88.7452   5
  -4  -2  13 426.639 73.8011   7
   4  -2 -13 408.747 59.4222   3
  -4  -2  13 345.634 83.3599   5
  -4  -2  12 6960.36 284.727   5
  -4  -2  12 7195.87 231.759   7
   4  -2 -12 7518.06 282.993   7
   4  -2 -12 7034.80 215.945   3
   4  -2 -12 7048.72 272.405   5
  -4  -2  11 1073.78 93.0374   7
   4  -2 -11 1032.58 90.2570   3
   4  -2 -11 1149.00 116.707   5
  -4  -2  11 1022.74 117.959   5
   4  -2 -11 913.429 105.053   7
   4  -2 -10 6302.05 240.067   7
  -4  -2  10 6343.18 193.005   7
   4  -2 -10 6334.99 246.188   5
   4  -2 -10 5726.91 202.660   3
  -4  -2  10 5932.94 253.914   5
   4  -2  -9 2703.20 192.262   2
  -4  -2   9 2734.05 182.668   6
   4  -2  -9 2674.96 139.298   3
   4  -2  -9 2564.29 161.020   5
   4  -2  -9 2706.13 156.566   7
  -4  -2   9 2697.61 166.989   5
  -4  -2   9 2835.49 121.209   7
   4  -2  -8 18837.7 376.942   7
   4  -2  -8 17952.3 354.016   3
  -4  -2   8 18941.1 437.475   6
   4  -2  -8 17865.2 450.490   2
  -4  -2   8 18091.2 406.811   5
   4  -2  -8 18235.2 404.816   5
   4  -2  -7 130.686 46.5611   5
   4  -2  -7 29.0150 62.0875   2
  -4  -2   7 40.3209 51.9270   6
   4  -2  -7 95.0876 56.2449   7
  -4  -2   7 87.3318 51.1451   5
   4  -2  -7 91.1861 44.5367   3
   4  -2  -6 36330.1 565.164   2
   4  -2  -6 36205.0 540.897   5
   4  -2  -6 36445.2 496.716   3
  -4  -2   6 37756.3 556.083   5
   4  -2  -5 948.259 98.2616   2
  -4  -2   5 1110.94 100.772   5
   4  -2  -5 1030.21 91.5510   3
   4  -2  -5 1115.70 99.5374   5
   4  -2  -4 28085.2 435.054   3
   4  -2  -4 27966.0 458.526   5
   4  -2  -4 27966.3 439.019   2
  -4  -2   4 28490.1 451.698   5
  -4  -2   3 4996.73 186.846   5
  -4  -2   3 5160.85 162.016   7
   4  -2  -3 5190.05 192.137   3
   4  -2  -3 4959.00 174.437   2
  -4  -2   2 100552. 740.114   7
   4  -2  -2 100653. 826.869   3
  -4  -2   2 99923.3 788.877   5
   4  -2  -2 101321. 700.202   2
   4  -2  -1 5304.08 149.533   2
   4  -2  -1 5009.06 190.880   3
  -4  -2   1 5387.72 174.063   1
  -4  -2   1 5218.86 182.480   7
  -4  -2   1 5129.48 175.968   5
  -4  -2   0 28404.4 427.938   1
   4  -2   0 28488.7 311.846   2
  -4  -2   0 28100.1 439.328   7
   4  -2   0 27104.4 437.020   3
  -4  -2   0 27860.4 388.360   5
   4  -2   0 27950.8 412.527   4
  -4  -2  -1 1013.32 97.2446   2
   4  -2   1 1181.71 96.7030   4
  -4  -2  -1 952.437 97.6761   7
   4  -2   1 1119.51 77.0255   6
  -4  -2  -1 1002.72 94.3129   1
   4  -2   1 995.696 90.0298   3
  -4  -2  -1 1011.41 78.7745   5
   4  -2   2 39197.6 558.346   4
  -4  -2  -2 38438.4 564.297   2
  -4  -2  -2 38089.2 574.315   7
   4  -2   2 38953.3 522.916   3
  -4  -2  -2 39333.3 568.135   1
  -4  -2  -2 37672.2 417.052   5
   4  -2   2 39443.7 462.003   6
  -4  -2  -3 102.026 59.0145   2
  -4  -2  -3 150.942 58.4396   1
   4  -2   3 171.612 47.1818   6
   4  -2   3 206.044 33.6417   2
   4  -2   3 207.787 56.8603   3
  -4  -2  -3 159.353 37.1247   5
  -4  -2  -3 100.237 57.9266   7
   4  -2   3 203.215 61.8289   4
   4  -2   4 18409.2 433.893   4
  -4  -2  -4 18535.8 434.378   2
   4  -2   4 18886.1 259.644   2
   4  -2   4 18323.3 363.117   3
  -4  -2  -4 17329.6 434.613   7
  -4  -2  -4 18456.3 440.459   1
   4  -2   4 17794.0 377.987   6
  -4  -2  -4 18866.0 264.021   5
  -4  -2  -5 2673.80 179.516   2
   4  -2   5 3098.35 190.356   7
   4  -2   5 2977.93 189.089   4
  -4  -2  -5 2528.97 177.370   1
   4  -2   5 2714.17 144.659   3
   4  -2   5 2775.10 166.779   6
   4  -2   5 2825.61 112.140   2
  -4  -2  -5 2772.30 95.9301   5
  -4  -2  -5 2584.92 186.726   7
  -4  -2  -6 6721.35 291.615   2
  -4  -2  -6 6207.14 288.232   7
   4  -2   6 6442.21 284.409   7
   4  -2   6 6731.70 240.335   1
   4  -2   6 6877.86 188.225   2
   4  -2   6 6608.39 268.815   6
  -4  -2  -6 5523.38 115.568   5
  -4  -2  -6 6397.50 285.132   1
   4  -2   6 6429.08 218.666   3
   4  -2   6 6570.42 190.128   5
   4  -2   7 1117.73 89.3773   2
  -4  -2  -7 808.461 128.867   7
   4  -2   7 1065.82 129.692   6
   4  -2   7 937.651 92.1768   3
   4  -2   7 1096.25 110.654   1
   4  -2   7 985.128 81.2403   5
   4  -2   8 7081.02 224.919   2
   4  -2   8 6758.60 222.102   3
   4  -2   8 6665.54 260.607   1
   4  -2   8 6709.85 189.038   5
  -4  -2  -8 6828.24 333.099   7
   4  -2   9 411.176 66.5434   3
  -4  -2  -9 586.398 129.860   7
   4  -2   9 407.999 75.5142   2
   4  -2   9 432.066 55.2215   5
   4  -2   9 443.960 85.9321   1
  -4  -2 -10 2937.66 245.535   7
   4  -2  10 3250.87 200.629   1
   4  -2  10 2886.44 113.796   5
   4  -2  10 3137.94 174.382   2
   4  -2  11 692.395 103.344   2
   4  -2  11 601.237 106.443   1
  -4  -2 -11 526.448 128.733   7
  -4  -2 -12 879.330 162.897   7
   4  -2  12 909.119 116.556   2
   4  -2  12 818.232 124.508   1
  -4  -2 -13 933.182 184.683   7
   4  -2  13 856.915 142.073   1
  -4  -2 -14 946.486 174.788   7
  -4  -2 -15 580.121 146.501   7
  -4  -1  19 1297.53 179.271   2
  -4  -1  18 1467.28 181.674   2
  -4  -1  17-64.1471 102.516   2
  -4  -1  16 1718.21 180.880   2
  -4  -1  16 1261.75 132.925   5
   4  -1 -15 580.196 94.1425   7
   4  -1 -15 308.586 73.6586   5
   4  -1 -15 245.283 36.2031   3
  -4  -1  15 424.459 105.001   2
  -4  -1  15 407.365 87.1704   5
  -4  -1  14 216.461 69.4724   7
   4  -1 -14 293.954 73.3572   7
  -4  -1  14 169.788 68.3102   5
   4  -1 -14 205.783 66.7408   5
   4  -1 -14 162.061 38.2080   3
  -4  -1  14 188.676 84.6107   2
   4  -1 -13 946.513 128.217   1
  -4  -1  13 1147.38 130.728   4
   4  -1 -13 829.903 104.996   5
   4  -1 -13 979.708 109.840   7
  -4  -1  13 772.100 94.0202   7
   4  -1 -13 866.037 74.8942   3
  -4  -1  13 1077.29 118.538   5
  -4  -1  13 889.953 118.212   2
  -4  -1  12 8788.30 255.082   7
  -4  -1  12 8846.21 320.753   2
  -4  -1  12 8099.27 286.486   5
   4  -1 -12 8431.56 271.774   7
   4  -1 -12 8416.32 288.314   5
  -4  -1  12 8530.58 312.883   4
   4  -1 -12 8682.24 223.341   3
   4  -1 -12 8546.56 318.693   1
  -4  -1  11 1808.79 143.415   2
  -4  -1  11 1813.60 110.080   7
   4  -1 -11 1732.89 118.653   7
  -4  -1  11 1659.30 130.328   5
   4  -1 -11 1653.04 145.293   1
  -4  -1  11 1623.08 139.035   4
   4  -1 -11 1749.56 167.159   2
   4  -1 -11 1703.13 130.083   5
   4  -1 -11 1784.99 106.367   3
   4  -1 -10 10280.2 256.995   7
  -4  -1  10 10519.0 296.033   4
  -4  -1  10 10223.2 309.568   2
  -4  -1  10 10200.6 223.734   7
   4  -1 -10 10452.1 355.387   2
   4  -1 -10 10117.9 294.697   5
  -4  -1  10 10714.3 355.677   6
  -4  -1  10 9832.27 296.138   5
   4  -1 -10 9890.78 239.700   3
   4  -1  -9 258.423 47.2352   3
   4  -1  -9 235.270 70.2604   2
  -4  -1   9 462.454 76.8270   2
   4  -1  -9 304.979 51.8779   7
  -4  -1   9 143.269 59.2835   6
   4  -1  -9 211.206 56.4456   5
  -4  -1   9 297.999 67.7178   5
  -4  -1   9 270.833 41.5841   7
  -4  -1   8 5934.57 218.615   5
  -4  -1   8 5879.08 232.591   6
   4  -1  -8 5966.59 246.804   2
  -4  -1   8 6251.19 135.844   7
   4  -1  -8 6125.02 214.727   5
   4  -1  -8 5893.87 182.301   3
  -4  -1   8 5906.53 210.103   2
   4  -1  -8 5762.98 171.886   7
   4  -1  -7 508.572 67.9752   5
   4  -1  -7 621.654 60.3172   7
  -4  -1   7 440.008 68.6403   6
  -4  -1   7 559.690 36.9617   7
   4  -1  -7 533.416 83.0463   2
  -4  -1   7 585.201 74.9842   5
   4  -1  -7 549.889 62.9881   3
   4  -1  -6 24350.7 317.664   7
  -4  -1   6 26151.9 420.478   5
  -4  -1   6 25665.0 411.880   6
   4  -1  -6 26177.1 417.365   5
   4  -1  -6 26044.1 443.998   2
   4  -1  -6 24812.6 366.370   3
  -4  -1   5 2137.37 116.021   6
   4  -1  -5 2303.21 133.580   2
   4  -1  -5 2155.68 123.444   5
  -4  -1   5 2389.97 126.407   5
   4  -1  -5 2366.36 114.672   3
   4  -1  -4 12412.0 268.559   2
  -4  -1   4 12595.6 273.323   5
   4  -1  -4 12148.6 270.426   5
  -4  -1   4 12210.6 148.285   7
   4  -1  -4 12186.0 250.269   3
  -4  -1   3 1703.43 68.9847   7
   4  -1  -3 1576.04 99.1560   2
   4  -1  -3 1557.08 102.580   5
  -4  -1   3 1758.14 106.349   5
   4  -1  -3 1563.58 98.4519   3
  -4  -1   2 54107.4 426.645   7
   4  -1  -2 52068.1 368.675   4
   4  -1  -2 53443.4 478.664   2
   4  -1  -2 54128.5 524.521   5
  -4  -1   2 54231.8 507.089   5
   4  -1  -2 53031.0 517.358   3
  -4  -1   1 1448.09 88.2848   7
   4  -1  -1 1550.87 92.7901   5
  -4  -1   1 1374.44 84.1766   5
   4  -1  -1 1558.45 93.7480   3
   4  -1  -1 1561.55 80.4263   4
   4  -1   0 13193.7 247.649   4
   4  -1   0 12703.5 171.880   6
   4  -1   0 12743.2 240.137   5
   4  -1   0 12305.4 251.284   3
  -4  -1   0 12089.1 213.864   5
  -4  -1   0 12203.5 257.771   7
  -4  -1  -1 1996.48 119.456   7
   4  -1   1 2060.07 113.706   4
   4  -1   1 2179.28 109.276   3
   4  -1   1 2159.37 100.964   5
   4  -1   1 2207.30 90.7454   6
  -4  -1  -1 2239.63 88.4703   5
   4  -1   2 22151.1 403.584   7
   4  -1   2 22978.2 395.559   4
   4  -1   2 23265.4 301.251   2
   4  -1   2 22620.8 331.884   6
  -4  -1  -2 23398.5 400.599   2
  -4  -1  -2 22166.8 406.478   7
   4  -1   2 23017.6 343.272   3
  -4  -1  -2 23195.4 250.461   5
  -4  -1  -3 513.409 76.4907   1
   4  -1   3 451.068 53.5750   2
   4  -1   3 464.557 58.3538   3
   4  -1   3 521.583 67.0452   6
  -4  -1  -3 411.087 76.9896   7
  -4  -1  -3 489.091 34.7807   5
   4  -1   3 490.178 73.9338   4
  -4  -1  -3 581.863 78.0873   2
   4  -1   3 433.200 69.0454   7
   4  -1   4 5906.70 235.145   7
  -4  -1  -4 5638.54 235.571   7
   4  -1   4 6022.58 236.224   4
  -4  -1  -4 5760.15 223.854   2
   4  -1   4 5988.19 177.315   2
   4  -1   4 6203.12 214.138   1
   4  -1   4 5701.41 208.417   6
  -4  -1  -4 5764.21 230.693   1
   4  -1   4 5780.54 173.801   3
   4  -1   5 264.857 33.0211   5
  -4  -1  -5 305.574 77.5149   7
   4  -1   5 285.117 70.7917   7
  -4  -1  -5 351.846 70.9311   2
   4  -1   5 232.435 68.8102   4
   4  -1   5 233.800 56.9035   1
   4  -1   5 270.375 64.8717   6
   4  -1   5 313.917 55.5465   2
   4  -1   5 265.350 46.8611   3
  -4  -1  -5 356.049 72.2228   1
   4  -1   6 9298.56 261.632   2
  -4  -1  -6 9819.74 343.647   4
   4  -1   6 9532.25 335.560   4
  -4  -1  -6 10221.7 333.417   2
  -4  -1  -6 9266.99 333.507   7
   4  -1   6 9243.46 288.584   1
   4  -1   6 9494.66 211.886   3
   4  -1   6 9259.67 311.362   6
  -4  -1  -6 9186.65 322.041   1
   4  -1   6 9812.22 337.907   7
   4  -1   6 7607.74 139.688   5
  -4  -1  -7 1498.23 151.844   4
  -4  -1  -7 1568.49 146.718   1
   4  -1   7 1346.38 57.3715   5
   4  -1   7 1629.88 136.482   1
  -4  -1  -7 1797.19 167.828   7
   4  -1   7 1718.78 131.002   2
   4  -1   7 1524.05 144.700   6
   4  -1   7 1253.41 54.5802   5
   4  -1   7 1697.20 90.4823   3
  -4  -1  -7 1768.21 152.302   2
  -4  -1  -8 7952.62 346.715   4
   4  -1   8 7809.36 178.591   3
   4  -1   8 8076.10 278.801   2
   4  -1   8 8266.96 300.883   1
  -4  -1  -8 8179.01 345.169   7
   4  -1   9 1030.02 117.442   2
   4  -1   9 833.197 119.074   1
  -4  -1  -9 1002.03 144.686   7
   4  -1  10 283.002 76.7642   2
   4  -1  10 287.183 88.2657   1
  -4  -1 -10 346.194 112.490   7
   4  -1  11 479.394 93.8429   2
  -4  -1 -11 427.452 113.718   7
   4  -1  11 574.766 112.745   1
   4  -1  12 1780.71 188.022   1
   4  -1  12 2219.20 192.071   2
  -4  -1 -12 2008.78 221.131   7
   4  -1  13 80.5306 89.3242   1
   4  -1  13-14.4064 84.7273   2
  -4   0  20 607.257 153.734   2
   4   0 -19 844.008 147.281   4
  -4   0  19 1066.35 184.225   2
   4   0 -18 519.077 123.743   4
  -4   0  18 353.484 115.559   2
   4   0 -17 1394.25 162.963   4
  -4   0  17 1593.05 190.114   2
   4   0 -16 1338.58 154.503   4
  -4   0  16 1676.94 189.388   2
  -4   0  16 1180.02 128.508   5
   4   0 -15 1107.55 125.739   5
   4   0 -15 1339.50 143.554   4
   4   0 -15 1415.62 139.157   1
   4   0 -15 1203.29 79.1062   3
  -4   0  15 1422.00 138.684   5
  -4   0  15 1394.42 169.698   2
  -4   0  15 1131.87 126.227   7
   4   0 -14 3534.07 207.888   4
  -4   0  14 3858.21 255.587   2
  -4   0  14 3735.76 220.229   4
  -4   0  14 3284.28 190.850   7
   4   0 -14 3726.55 205.968   1
  -4   0  14 3080.60 189.020   5
   4   0 -14 3062.80 134.767   3
   4   0 -14 3734.03 202.827   5
   4   0 -14 3346.88 134.248   3
   4   0 -13 366.836 79.1027   4
  -4   0  13 201.597 65.1919   4
  -4   0  13 324.042 86.4787   7
   4   0 -13 378.903 88.5068   1
  -4   0  13 241.346 69.9870   5
   4   0 -13 291.274 52.1042   3
  -4   0  13 448.444 113.605   2
   4   0 -13 267.961 71.2508   5
   4   0 -12 357.323 56.6833   3
   4   0 -12 287.008 79.3781   1
   4   0 -12 362.705 74.9090   5
   4   0 -12 303.126 63.9004   4
  -4   0  12 296.851 71.8662   7
  -4   0  12 438.535 106.683   2
  -4   0  12 341.673 72.8798   5
  -4   0  12 288.738 73.8710   4
   4   0 -12 254.506 85.8158   2
   4   0 -11 3000.55 156.068   4
   4   0 -11 2940.28 159.271   1
  -4   0  11 2813.17 191.132   2
   4   0 -11 3100.41 201.710   2
  -4   0  11 2945.54 200.956   6
  -4   0  11 2638.60 156.511   4
  -4   0  11 2813.32 161.950   5
   4   0 -11 3017.99 170.550   5
  -4   0  11 2775.80 141.516   7
   4   0 -11 2794.44 131.470   3
   4   0 -10 3123.92 147.039   4
  -4   0  10 2924.36 152.229   4
   4   0 -10 3158.50 165.768   5
  -4   0  10 3196.98 190.718   2
  -4   0  10 3091.50 139.244   7
   4   0 -10 3291.92 191.114   2
  -4   0  10 3109.05 194.419   6
  -4   0  10 3249.90 169.917   5
   4   0 -10 3014.75 126.685   7
   4   0 -10 3189.56 138.021   3
  -4   0   9 1656.93 107.208   4
  -4   0   9 1502.02 126.763   2
  -4   0   9 1577.64 89.4250   7
   4   0  -9 1612.82 84.6401   7
   4   0  -9 1522.27 94.5182   4
  -4   0   9 1282.30 124.694   6
  -4   0   9 1636.58 118.272   5
   4   0  -9 1575.71 129.924   2
   4   0  -9 1575.13 114.639   5
   4   0  -8 22692.8 316.360   4
  -4   0   8 22286.1 332.027   4
  -4   0   8 23277.1 440.558   2
  -4   0   8 22807.4 285.449   7
   4   0  -8 23598.4 412.865   5
  -4   0   8 23147.9 406.551   5
  -4   0   8 23673.0 438.256   6
   4   0  -8 23960.3 431.913   6
   4   0  -8 23349.5 266.419   7
   4   0  -8 24041.2 453.250   2
   4   0  -7 931.382 47.0106   7
   4   0  -7 893.000 59.4201   4
  -4   0   7 914.346 64.7040   4
  -4   0   7 1001.89 92.0364   6
   4   0  -7 930.642 87.3570   6
  -4   0   7 795.737 87.4855   2
  -4   0   7 834.675 81.5824   5
   4   0  -7 841.830 88.5128   2
   4   0  -7 826.629 83.5011   5
   4   0  -6 955.449 51.3676   4
  -4   0   6 933.024 80.0395   6
   4   0  -6 801.195 72.0786   6
  -4   0   6 885.375 82.1587   5
   4   0  -6 854.925 81.2253   5
   4   0  -6 914.619 88.8708   2
  -4   0   6 1060.02 92.8357   2
   4   0  -5 74.5883 37.0557   6
   4   0  -5 58.8396 17.3626   4
  -4   0   5 134.158 53.3287   5
  -4   0   5 119.950 41.0744   6
   4   0  -5 110.279 49.6753   2
   4   0  -5 122.335 48.1987   5
  -4   0   5 17.4673 42.0616   2
   4   0  -4 10457.7 179.850   6
  -4   0   4 10456.2 182.533   6
   4   0  -4 10596.2 234.351   2
  -4   0   4 10472.1 233.791   5
   4   0  -4 10555.0 234.001   5
   4   0  -3 250.581 30.2437   7
  -4   0   3 254.216 50.2247   5
   4   0  -3 301.492 52.8994   5
   4   0  -3 235.572 33.2125   6
   4   0  -2 33977.8 281.972   4
   4   0  -2 33687.6 307.156   7
   4   0  -2 35110.5 375.038   5
  -4   0   2 34590.5 378.645   5
   4   0  -1 210.617 47.9929   3
  -4   0   1 293.757 46.4165   4
   4   0  -1 276.027 44.5817   4
   4   0  -1 231.355 44.7728   7
  -4   0   1 242.922 48.7203   5
   4   0  -1 226.831 44.1197   5
   4   0   0 10630.1 217.375   4
   4   0   0 11031.1 229.671   7
  -4   0   0 10248.5 229.302   7
   4   0   0 10578.0 208.320   3
   4   0   0 10944.7 185.582   5
  -4   0   0 10578.2 190.115   5
  -4   0   0 10918.2 218.755   4
  -4   0  -1 12.0990 43.7698   4
   4   0   1 127.583 46.3053   4
   4   0   1 29.5635 36.1440   2
   4   0   1 52.3570 47.0379   7
  -4   0  -1 82.5133 45.7341   7
  -4   0  -1 115.497 30.4909   5
   4   0   1 97.6330 38.5877   3
   4   0   1 90.2256 28.8356   5
   4   0   2 796.587 82.0484   7
  -4   0  -2 840.313 85.0114   4
  -4   0  -2 849.639 91.4696   7
   4   0   2 966.098 91.3606   4
   4   0   2 793.455 73.0539   2
   4   0   2 935.138 86.0573   1
   4   0   2 940.020 48.7543   5
   4   0   2 890.841 64.1637   3
   4   0   3 847.285 79.1928   2
  -4   0  -3 862.167 90.4405   4
   4   0   3 830.744 90.7066   4
  -4   0  -3 899.102 93.3977   7
   4   0   3 850.766 91.4597   7
   4   0   3 862.761 86.1516   1
   4   0   3 837.765 61.6437   3
   4   0   3 699.354 34.7273   5
  -4   0  -4 23099.6 453.306   4
   4   0   4 23482.7 459.352   4
   4   0   4 23131.3 285.809   3
   4   0   4 22775.8 448.438   7
   4   0   4 23874.4 400.188   2
  -4   0  -4 24214.3 404.780   2
   4   0   4 23135.9 424.112   1
   4   0   4 23086.0 423.505   6
  -4   0  -4 23195.3 457.108   7
  -4   0  -5 1647.87 135.232   4
  -4   0  -5 1850.42 123.286   2
  -4   0  -5 1517.54 132.690   7
   4   0   5 1656.32 127.717   1
   4   0   5 1820.94 135.864   6
   4   0   5 1630.29 135.606   4
   4   0   5 1907.10 130.125   2
   4   0   5 1848.85 141.859   7
   4   0   5 1571.43 72.9853   3
  -4   0  -6 2975.89 191.594   4
   4   0   6 3159.60 195.399   4
  -4   0  -6 3253.11 172.317   2
   4   0   6 3058.73 171.385   2
  -4   0  -6 3189.73 194.615   7
   4   0   6 2521.80 86.2102   3
   4   0   6 3478.17 200.980   7
   4   0   6 3207.87 182.958   1
   4   0   6 3177.64 188.391   6
   4   0   7 2542.64 186.093   7
  -4   0  -7 2785.14 192.974   4
   4   0   7 2480.20 182.790   6
  -4   0  -7 2842.37 169.718   2
   4   0   7 2555.27 174.723   1
   4   0   7 1369.22 51.7642   3
  -4   0  -7 2650.16 192.112   7
   4   0   7 2736.40 173.693   2
  -4   0  -8 265.367 88.7646   4
   4   0   8 398.182 92.2994   1
  -4   0  -8 310.595 71.0342   2
   4   0   8 390.874 88.9834   2
   4   0   9 171.867 83.9466   1
  -4   0  -9 345.408 108.038   4
  -4   0  -9 413.664 87.2294   2
   4   0   9 291.785 82.7987   2
  -4   0 -10 3610.61 258.053   4
   4   0  10 3668.91 243.890   1
   4   0  10 3710.97 234.926   2
   4   0  11 1476.11 165.490   2
  -4   0 -11 1613.25 183.715   4
   4   0  11 1523.65 169.059   1
   4   0  12 1734.04 186.742   2
  -4   0 -12 1442.08 191.296   4
   4   0  12 1631.71 183.552   1
  -4   0 -13 1311.18 192.352   4
   4   0  13 1565.81 186.124   2
  -4   0 -14 515.495 144.830   4
   4   0  14 386.743 117.913   2
  -4   0 -15 1004.80 179.779   4
   4   0  15 982.684 166.473   2
  -4   1  20 329.186 142.872   2
   4   1 -19 1233.75 174.589   4
  -4   1  19 1626.45 229.668   2
   4   1 -18 1194.29 167.040   4
  -4   1  18 1766.26 216.607   2
   4   1 -17-11.6693 76.9012   4
  -4   1  17 36.0502 100.919   2
   4   1 -16 1759.41 179.154   4
  -4   1  16 2075.81 219.960   2
   4   1 -15 446.469 60.6986   3
   4   1 -15 435.240 100.726   4
  -4   1  15 495.331 125.150   2
   4   1 -15 362.290 85.0844   5
   4   1 -14 322.313 79.9680   4
  -4   1  14 286.775 80.9827   4
   4   1 -14 200.146 56.5761   1
  -4   1  14 317.804 111.380   2
   4   1 -14 252.724 58.9522   3
   4   1 -14 366.417 81.5618   5
   4   1 -13 764.717 87.1558   3
   4   1 -13 913.153 111.687   5
  -4   1  13 935.619 112.035   4
   4   1 -13 884.806 107.676   4
  -4   1  13 831.172 102.340   5
  -4   1  13 1050.87 144.750   2
   4   1 -13 967.423 90.6372   1
   4   1 -13 914.643 117.244   2
  -4   1  12 8589.01 356.902   2
   4   1 -12 8352.53 291.542   4
  -4   1  12 8241.45 273.608   4
   4   1 -12 8790.60 235.132   1
   4   1 -12 8505.48 295.225   5
   4   1 -12 8444.66 316.599   2
   4   1 -12 8359.47 350.113   6
  -4   1  12 7368.71 270.365   5
  -4   1  11 1760.50 165.068   2
   4   1 -11 1779.10 131.871   4
  -4   1  11 1526.07 113.406   4
  -4   1  11 1520.65 151.006   6
   4   1 -11 1730.38 102.654   1
  -4   1  11 1391.97 124.265   5
   4   1 -11 1487.25 148.954   6
   4   1 -11 1652.25 144.233   2
   4   1 -11 1819.05 137.596   5
  -4   1  10 9129.69 332.555   2
   4   1 -10 9461.09 329.455   6
   4   1 -10 9399.56 272.747   4
   4   1 -10 9345.70 291.086   5
  -4   1  10 9149.72 245.414   4
   4   1 -10 9790.32 217.985   1
  -4   1  10 8979.34 317.542   6
   4   1 -10 9307.82 304.773   2
  -4   1  10 8934.88 278.894   5
   4   1  -9 321.304 57.4876   4
   4   1  -9 301.252 65.3283   2
  -4   1   9 215.175 45.7671   4
   4   1  -9 312.759 71.4834   6
  -4   1   9 237.802 78.2073   2
  -4   1   9 284.702 63.7230   5
   4   1  -9 381.436 50.8820   1
  -4   1   9 331.963 75.4293   6
   4   1  -9 343.851 66.2515   5
  -4   1   8 5740.34 236.701   2
  -4   1   8 5711.47 155.401   4
   4   1  -8 5498.80 180.255   4
  -4   1   8 5838.48 219.645   6
   4   1  -8 5834.11 217.573   5
   4   1  -8 5604.03 222.538   6
  -4   1   8 5821.06 209.680   5
   4   1  -8 6030.67 216.461   2
  -4   1   7 502.382 45.1105   4
   4   1  -7 442.901 70.0753   6
   4   1  -7 532.529 60.4232   4
  -4   1   7 489.507 72.9892   5
  -4   1   7 405.153 77.8479   2
   4   1  -7 388.172 60.9356   2
  -4   1   7 510.810 68.5811   6
   4   1  -7 596.765 77.5716   5
  -4   1   6 22214.5 211.318   4
  -4   1   6 23396.6 421.633   2
   4   1  -6 22374.4 313.502   4
   4   1  -6 23020.8 368.870   2
  -4   1   6 23876.0 396.062   5
   4   1  -6 23548.2 384.796   6
  -4   1   6 23318.2 354.434   6
   4   1  -6 23601.8 398.728   5
  -4   1   5 1880.86 118.776   2
  -4   1   5 2119.67 117.266   5
  -4   1   5 2042.51 96.0970   6
   4   1  -5 1864.18 105.811   6
  -4   1   5 2001.48 107.583   3
   4   1  -5 2038.93 108.696   2
   4   1  -5 2119.17 121.603   5
  -4   1   4 12265.4 268.098   2
  -4   1   4 12288.4 183.354   6
   4   1  -4 11601.1 233.218   6
   4   1  -4 12664.5 271.525   5
  -4   1   4 11794.6 266.343   5
  -4   1   4 12435.5 258.618   3
  -4   1   3 1597.59 99.2622   3
  -4   1   3 1411.27 49.7650   4
  -4   1   3 1473.75 93.7342   2
  -4   1   3 1373.77 95.3726   5
   4   1  -3 1574.20 99.2693   5
   4   1  -3 1450.15 71.0771   7
  -4   1   2 54052.6 368.565   4
   4   1  -2 54405.3 502.708   5
   4   1  -2 53309.0 436.748   7
  -4   1   2 54252.5 530.714   3
   4   1  -1 1456.69 85.8977   7
  -4   1   1 1552.63 80.5470   4
   4   1  -1 1401.30 87.6848   1
   4   1  -1 1455.92 84.1399   5
  -4   1   1 1511.81 94.0442   3
   4   1   0 12561.6 261.889   7
   4   1   0 12122.0 258.596   2
  -4   1   0 12550.6 252.706   3
   4   1   0 11925.2 256.842   1
  -4   1   0 13042.1 248.974   4
   4   1   0 12295.0 215.053   5
   4   1   1 2539.46 133.349   4
  -4   1  -1 2236.87 118.546   4
   4   1   1 2144.57 119.434   2
   4   1   1 2252.65 89.8680   5
   4   1   1 2329.88 126.878   1
   4   1   1 2263.86 127.406   7
  -4   1  -1 2302.85 111.860   3
   4   1   2 25583.5 261.033   5
   4   1   2 26364.1 440.282   7
   4   1   2 25444.3 419.971   1
   4   1   2 24737.5 404.353   2
  -4   1  -2 26464.1 423.117   4
  -4   1  -2 26207.2 359.308   3
   4   1   2 26425.9 437.248   4
  -4   1  -3 602.027 61.6906   3
   4   1   3 613.274 86.3510   7
   4   1   3 549.049 84.7580   4
  -4   1  -3 669.581 84.3668   4
   4   1   3 566.485 73.5507   2
   4   1   3 566.242 80.7792   1
   4   1   4 5912.01 236.333   4
   4   1   4 5846.71 232.255   1
   4   1   4 5706.27 221.737   2
   4   1   4 5899.04 241.719   7
  -4   1  -4 5796.51 231.937   4
  -4   1  -4 6006.28 172.171   3
   4   1   5 409.404 82.5550   7
   4   1   5 194.460 63.3705   4
  -4   1  -5 285.887 76.3220   4
   4   1   5 297.367 34.7847   3
   4   1   5 206.927 67.8026   1
   4   1   5 239.638 72.5476   2
  -4   1  -5 317.148 48.3193   3
   4   1   6 9980.67 346.396   4
   4   1   6 10520.3 344.323   1
   4   1   6 10313.8 355.181   7
  -4   1  -6 10182.2 344.158   4
   4   1   6 10360.6 331.503   2
  -4   1  -6 10454.8 222.702   3
  -4   1  -7 1699.04 157.402   4
   4   1   7 1784.77 160.046   1
  -4   1  -7 1944.12 129.861   2
   4   1   7 1805.20 154.628   2
  -4   1  -7 1922.94 94.4733   3
  -4   1  -8 8568.81 356.577   4
   4   1   8 9088.05 353.306   1
  -4   1  -8 8865.40 280.503   2
   4   1   8 8800.19 342.973   2
  -4   1  -8 8267.21 180.525   3
  -4   1  -9 1094.50 147.353   4
  -4   1  -9 940.957 107.266   2
   4   1   9 1156.67 158.990   1
   4   1   9 850.467 131.239   2
  -4   1 -10 230.508 97.6534   4
  -4   1 -10 217.021 68.2304   2
   4   1  10 172.467 84.7653   1
   4   1  10 237.978 89.1082   2
   4   1  11 558.786 126.139   2
  -4   1 -11 459.473 119.707   4
  -4   1 -11 601.710 103.503   2
   4   1  12 1699.46 198.620   2
  -4   1 -12 1500.34 186.374   4
   4   1  13 61.4700 91.3867   2
  -4   1 -13-22.9638 93.0320   4
   4   1  14 1512.80 199.176   2
  -4   1 -14 1358.87 205.832   4
  -4   1 -15 1364.34 205.219   4
   4   1  15 1792.53 234.737   2
   4   1  16 155.356 118.197   2
   4   2 -20 466.944 128.608   4
   4   2 -19 540.416 130.966   4
  -4   2  19 613.660 167.321   2
   4   2 -18 850.845 151.548   4
  -4   2  18 827.261 186.602   2
   4   2 -17 986.279 145.363   4
  -4   2  17 963.692 172.782   2
   4   2 -16 993.183 142.108   4
  -4   2  16 836.739 161.104   2
   4   2 -15 524.578 105.081   4
  -4   2  15 667.838 147.117   2
   4   2 -14 2826.20 205.509   4
  -4   2  14 2301.86 173.319   4
   4   2 -14 3138.54 181.281   3
   4   2 -14 3001.31 249.080   6
   4   2 -14 2870.84 198.828   2
  -4   2  14 2804.95 243.481   2
   4   2 -14 2905.27 200.032   5
   4   2 -13 404.576 85.3850   5
   4   2 -13 448.454 89.5913   2
  -4   2  13 316.446 75.4618   4
   4   2 -13 418.113 107.116   6
   4   2 -13 547.194 90.1828   3
   4   2 -13 297.100 82.5068   4
  -4   2  13 544.777 136.167   2
  -4   2  12 6085.15 239.654   4
   4   2 -12 6982.87 288.704   4
  -4   2  12 6600.75 334.066   2
   4   2 -12 6631.88 321.161   6
   4   2 -12 7113.38 286.067   5
   4   2 -12 6599.52 267.022   2
   4   2 -12 6685.48 256.512   3
   4   2 -11 983.870 107.653   3
   4   2 -11 1080.53 113.152   2
  -4   2  11 991.103 97.1863   4
   4   2 -11 992.193 118.769   5
  -4   2  11 1094.48 141.723   2
   4   2 -11 1029.32 130.286   6
   4   2 -11 962.322 110.995   4
   4   2 -10 6125.78 244.322   4
  -4   2  10 6454.94 278.269   6
  -4   2  10 6311.24 211.990   4
   4   2 -10 6641.62 246.899   3
   4   2 -10 6697.57 263.637   5
   4   2 -10 6313.26 236.069   2
   4   2 -10 6704.51 289.773   6
  -4   2  10 7024.16 312.078   2
  -4   2   9 2853.76 141.259   3
  -4   2   9 2698.61 129.052   4
   4   2  -9 2762.60 157.580   4
   4   2  -9 2621.99 175.148   6
   4   2  -9 2841.36 170.177   5
   4   2  -9 2610.30 147.462   2
  -4   2   9 2477.32 181.651   2
   4   2  -8 18264.2 353.134   2
   4   2  -8 17723.8 374.250   4
  -4   2   8 18309.0 301.169   4
   4   2  -8 18430.0 425.999   6
   4   2  -8 17481.0 402.350   5
  -4   2   8 17569.7 438.414   2
  -4   2   8 18378.5 355.436   3
  -4   2   7 189.280 38.5615   4
   4   2  -7 110.103 59.4121   6
  -4   2   7 256.653 76.5000   2
  -4   2   7 204.549 50.9138   3
   4   2  -7 97.6005 45.4833   2
   4   2  -7 211.145 53.1497   4
   4   2  -7 244.286 60.0348   5
   4   2  -6 38114.4 544.382   6
  -4   2   6 38773.5 513.278   3
   4   2  -6 39115.9 553.947   5
  -4   2   6 37847.0 570.599   2
   4   2  -5 1092.52 49.4512   1
  -4   2   5 992.148 99.6087   2
  -4   2   5 1078.40 88.8566   3
   4   2  -5 894.964 90.9413   5
   4   2  -5 972.663 93.0594   6
  -4   2   4 27868.5 431.612   2
  -4   2   4 27963.0 437.681   3
   4   2  -4 28273.8 447.068   5
   4   2  -4 27390.2 278.322   1
  -4   2   3 4856.20 169.841   2
   4   2  -3 5078.00 137.057   1
   4   2  -3 4900.54 182.674   5
  -4   2   3 5085.79 191.883   3
   4   2  -2 98671.1 670.222   1
  -4   2   2 100214. 696.964   2
  -4   2   2 98051.0 652.498   4
  -4   2   2 102345. 831.342   3
   4   2  -2 98481.1 784.916   5
  -4   2   1 5447.20 166.801   4
   4   2  -1 5187.23 172.589   1
  -4   2   1 5022.86 123.654   6
   4   2  -1 4826.97 176.832   2
  -4   2   1 5349.56 194.380   3
   4   2  -1 5367.25 178.301   5
  -4   2   0 28565.1 412.229   4
   4   2   0 27657.9 448.038   7
   4   2   0 28196.3 435.421   2
   4   2   0 26665.8 414.536   1
  -4   2   0 28836.6 450.730   3
  -4   2   0 27776.8 317.369   6
   4   2   0 27845.4 386.667   5
   4   2   1 1058.88 106.111   7
  -4   2  -1 991.140 92.2150   4
   4   2   1 1054.72 102.301   2
   4   2   1 926.553 93.6502   1
  -4   2  -1 1152.80 99.1649   3
  -4   2  -1 1158.85 76.2589   6
  -4   2  -2 36806.3 454.514   6
  -4   2  -2 37484.9 544.703   4
   4   2   2 34816.2 538.074   1
   4   2   2 36303.4 543.065   2
   4   2   2 36772.1 574.753   7
  -4   2  -2 37113.8 518.042   3
  -4   2  -3 72.0664 51.3584   4
   4   2   3 36.6842 53.0006   4
   4   2   3 81.6381 59.0260   1
   4   2   3 182.368 64.2642   7
  -4   2  -3 100.380 46.3972   6
  -4   2  -3 138.777 49.7803   3
   4   2   3 115.554 54.3448   2
   4   2   4 17615.4 432.214   4
  -4   2  -4 18790.5 439.657   4
   4   2   4 18464.0 440.219   1
   4   2   4 17959.6 293.844   3
  -4   2  -4 18346.6 388.706   6
   4   2   4 18941.4 436.159   2
  -4   2  -4 18626.0 373.972   3
   4   2   4 18026.2 445.676   7
   4   2   5 2934.24 186.405   4
  -4   2  -5 2706.05 182.392   4
   4   2   5 2405.38 175.097   2
   4   2   5 2849.89 187.696   1
   4   2   5 2664.42 186.911   7
  -4   2  -5 2554.54 164.302   6
  -4   2  -5 3108.68 153.699   3
   4   2   5 2607.17 109.577   3
   4   2   6 5899.01 277.412   2
   4   2   6 5695.24 274.821   4
   4   2   6 6303.00 287.622   1
  -4   2  -6 6016.55 279.702   4
  -4   2  -6 5914.00 210.796   3
   4   2   6 5417.42 140.641   3
  -4   2  -7 1061.82 130.997   4
   4   2   7 1356.87 154.281   2
  -4   2  -7 993.361 90.8951   3
   4   2   7 615.551 42.8946   3
   4   2   7 865.657 49.2008   3
   4   2   7 1121.22 145.744   1
   4   2   8 7074.69 337.724   1
  -4   2  -8 6764.99 327.911   4
   4   2   8 7034.01 325.456   2
  -4   2  -8 7098.54 226.873   3
  -4   2  -9 383.038 60.9449   3
  -4   2  -9 430.852 107.183   4
   4   2   9 374.245 115.948   1
   4   2   9 507.346 109.937   2
  -4   2 -10 2983.00 138.676   3
   4   2  10 2996.04 248.348   2
  -4   2 -10 2502.16 224.198   4
  -4   2 -11 382.176 112.525   4
   4   2  11 499.087 126.962   2
   4   2  12 593.901 139.602   2
  -4   2 -12 1008.60 169.366   4
   4   2  13 897.447 176.622   2
  -4   2 -13 936.276 174.132   4
   4   2  14 862.630 178.059   2
  -4   2 -14 842.159 167.626   4
   4   2  15 383.056 160.641   2
  -4   2 -15 269.053 128.486   4
   4   2  16 549.128 171.425   2
   4   3 -20 133.551 96.3361   4
   4   3 -19 974.322 163.816   4
   4   3 -18 576.448 134.264   4
  -4   3  18 977.993 193.930   2
   4   3 -17 86.3466 87.8672   4
  -4   3  17 200.623 118.994   2
   4   3 -16 2542.30 228.850   4
  -4   3  16 2197.81 246.903   2
   4   3 -16 2483.35 254.980   6
   4   3 -15 1733.22 195.057   4
  -4   3  15 1738.45 216.682   2
   4   3 -15 1913.43 215.565   6
   4   3 -14 622.808 117.609   4
  -4   3  14 622.454 105.315   4
  -4   3  14 460.998 125.605   2
   4   3 -14 582.816 100.138   3
   4   3 -14 423.979 117.103   6
   4   3 -14 574.749 94.0028   2
   4   3 -13 959.089 107.396   2
  -4   3  13 984.341 115.280   4
  -4   3  13 1047.11 164.573   2
   4   3 -13 1045.93 157.667   6
   4   3 -13 1088.27 127.747   3
   4   3 -13 1063.99 134.363   4
  -4   3  12 6289.46 259.073   4
   4   3 -12 6968.62 312.018   4
   4   3 -12 6642.76 336.666   6
   4   3 -12 6595.39 250.493   2
   4   3 -12 6912.54 291.189   3
  -4   3  12 6611.32 350.678   2
   4   3 -11 1376.29 146.279   5
  -4   3  11 1475.46 121.392   4
   4   3 -11 1408.60 118.156   2
   4   3 -11 1443.59 142.568   3
  -4   3  11 1458.21 176.791   2
   4   3 -11 1295.11 152.149   6
   4   3 -11 1460.84 146.558   4
  -4   3  11 1405.97 116.548   3
  -4   3  10 13742.3 339.703   4
   4   3 -10 14388.6 409.354   4
   4   3 -10 14471.0 409.637   3
   4   3 -10 14073.3 439.316   6
   4   3 -10 14017.2 331.329   2
  -4   3  10 14386.1 466.619   2
  -4   3  10 13645.6 342.371   3
   4   3 -10 14647.0 417.005   5
   4   3  -9 565.120 105.313   5
  -4   3   9 560.746 80.3980   3
  -4   3   9 418.671 97.5255   2
  -4   3   9 561.139 77.3623   4
   4   3  -9 529.246 71.5999   2
   4   3  -9 682.197 99.4662   4
   4   3  -9 549.688 95.8938   3
   4   3  -9 601.987 107.179   6
   4   3  -8 139.971 68.1028   5
  -4   3   8 125.749 50.1784   3
   4   3  -8 192.748 68.5843   4
   4   3  -8 199.740 76.6834   3
  -4   3   8 115.672 74.1782   2
   4   3  -8 159.947 68.3240   6
   4   3  -8 90.2516 45.8014   2
  -4   3   7 1151.69 127.850   2
   4   3  -7 1410.44 96.8297   2
   4   3  -7 1471.38 132.707   3
   4   3  -7 1425.50 130.246   6
  -4   3   7 1363.81 116.136   3
   4   3  -7 1445.77 130.238   5
   4   3  -6 41939.3 631.581   6
  -4   3   6 41279.9 643.076   2
   4   3  -6 42729.7 646.582   3
  -4   3   6 42623.7 604.391   3
   4   3  -6 41849.2 645.067   5
   4   3  -5 5879.63 239.453   3
   4   3  -5 5592.96 228.757   6
  -4   3   5 5819.88 227.517   3
  -4   3   5 5973.34 239.233   2
   4   3  -5 6019.05 242.949   5
   4   3  -4 64416.6 770.252   3
  -4   3   4 64388.5 762.010   3
   4   3  -4 63874.8 758.169   5
  -4   3   4 62844.9 700.381   2
   4   3  -3 533.547 84.0414   5
   4   3  -3 533.743 66.9757   2
   4   3  -3 524.760 82.6115   3
  -4   3   3 514.755 68.7581   2
   4   3  -3 532.178 62.3613   1
  -4   3   3 612.020 86.9084   3
   4   3  -2-15.7547 44.1118   3
  -4   3   2 2.97116 39.4189   2
   4   3  -2 57.5529 42.2842   1
  -4   3   2 7.31016 53.2257   3
   4   3  -2-4.84914 44.4364   2
  -4   3   1 546.125 74.5672   4
   4   3  -1 752.816 86.2439   2
   4   3  -1 461.065 75.0347   3
  -4   3   1 600.712 62.0295   2
   4   3  -1 689.767 83.1153   1
  -4   3   1 737.643 94.6010   3
   4   3   0 62798.2 709.425   1
  -4   3   0 66079.3 721.012   4
   4   3   0 63801.5 719.559   2
   4   3   0 64818.0 715.845   3
  -4   3   0 66912.9 781.348   3
  -4   3   0 63716.8 590.425   6
   4   3   1 6338.80 242.912   1
  -4   3  -1 6134.05 233.544   4
   4   3   1 5989.52 233.480   2
   4   3   1 6445.85 225.555   3
  -4   3  -1 5928.26 192.734   6
  -4   3  -1 6473.63 246.693   3
   4   3   2 41168.6 644.009   1
  -4   3  -2 42549.8 634.664   4
   4   3   2 43369.3 569.314   3
  -4   3  -2 43426.8 640.293   3
  -4   3  -2 42688.3 547.876   6
   4   3   2 41548.8 639.123   2
   4   3   3 1203.25 123.433   2
   4   3   3 1259.81 139.434   7
   4   3   3 1157.67 102.074   3
  -4   3  -3 1343.79 111.311   6
  -4   3  -3 1321.08 123.049   3
   4   3   3 1218.13 128.892   1
  -4   3  -3 1116.28 117.868   4
  -4   3  -4 202.757 77.6179   4
  -4   3  -4 191.284 68.3218   6
   4   3   4 139.062 68.2662   2
   4   3   4 160.738 53.6912   3
   4   3   4 65.8281 66.7697   7
   4   3   4 231.963 89.1530   1
  -4   3  -4 128.978 58.1249   3
   4   3   5 624.225 109.648   2
   4   3   5 552.883 71.3544   3
   4   3   5 614.353 116.096   1
  -4   3  -5 726.703 101.223   6
  -4   3  -5 699.907 91.3697   3
  -4   3  -5 547.080 101.284   4
  -4   3  -6 15810.2 472.736   4
   4   3   6 15096.9 297.715   3
   4   3   6 14712.9 458.136   2
  -4   3  -6 14994.0 422.259   6
  -4   3  -6 15030.5 394.386   3
  -4   3  -7 1680.56 172.989   4
  -4   3  -7 1465.91 153.129   6
   4   3   7 1686.69 97.6307   3
  -4   3  -7 1881.74 149.332   3
   4   3   7 1815.94 181.931   2
  -4   3  -8 5764.06 317.539   4
  -4   3  -8 5953.85 301.923   6
  -4   3  -8 6423.60 259.599   3
   4   3   8 5260.82 150.551   3
   4   3   8 6292.61 338.102   2
  -4   3  -9 1006.61 151.708   4
  -4   3  -9 1094.83 114.617   3
   4   3   9 1209.39 169.065   2
  -4   3 -10 806.153 149.134   4
   4   3  10 562.155 136.265   2
  -4   3 -10 478.226 81.9099   3
  -4   3 -11 1443.63 189.353   4
   4   3  11 1507.38 199.784   2
   4   3  12 2170.12 241.332   2
  -4   3 -12 2456.29 251.366   4
   4   3  13-11.0874 120.261   2
  -4   3 -13 214.116 111.358   4
   4   3  14 1052.94 207.537   2
  -4   3 -14 470.017 146.063   4
   4   3  15 1138.43 210.833   2
   4   4 -19 613.490 144.283   4
   4   4 -18-182.731 129.326   4
   4   4 -17 1244.04 182.327   4
   4   4 -17 1146.86 196.537   6
  -4   4  17 1139.73 199.900   2
   4   4 -16 694.341 143.556   4
  -4   4  16 864.650 185.173   2
   4   4 -16 868.634 176.159   6
   4   4 -15 930.491 150.622   4
  -4   4  15 711.349 161.287   2
   4   4 -15 681.223 144.404   6
   4   4 -14 7665.51 377.902   4
   4   4 -14 6777.73 381.385   6
  -4   4  14 7565.00 422.118   2
   4   4 -13 609.361 122.878   4
  -4   4  13 476.007 138.321   2
   4   4 -13 742.918 143.247   6
  -4   4  12 3765.00 214.003   4
   4   4 -12 4450.61 292.719   6
  -4   4  12 4220.99 296.556   2
   4   4 -12 4111.92 184.913   2
   4   4 -12 4346.04 265.715   4
  -4   4  12 3644.09 197.966   3
   4   4 -11 802.944 130.233   4
  -4   4  11 573.347 89.9190   4
   4   4 -11 596.700 77.1162   2
  -4   4  11 708.539 96.1347   3
  -4   4  11 326.477 112.914   2
   4   4 -11 688.563 124.670   6
  -4   4  10 2215.75 157.617   4
   4   4 -10 2079.10 125.726   2
   4   4 -10 2196.73 187.930   4
  -4   4  10 1826.93 197.803   2
  -4   4  10 1987.87 156.603   3
   4   4 -10 2171.02 191.593   6
  -4   4   9 729.243 104.956   3
   4   4  -9 838.038 126.621   6
   4   4  -9 715.010 77.5346   2
  -4   4   9 696.847 128.464   2
   4   4  -9 635.412 108.601   4
   4   4  -8 32275.2 636.248   4
   4   4  -8 32279.6 457.840   2
   4   4  -8 33984.2 671.796   3
  -4   4   8 32382.4 672.017   2
  -4   4   8 32105.6 593.346   3
   4   4  -8 33016.7 661.078   6
   4   4  -7 3384.99 211.042   6
   4   4  -7 3456.38 219.523   3
  -4   4   7 3311.89 196.836   3
  -4   4   7 3352.74 217.989   2
   4   4  -6 21717.7 519.152   3
   4   4  -6 21475.7 505.436   6
  -4   4   6 22484.6 501.859   3
  -4   4   6 20673.8 496.199   2
   4   4  -5 804.895 87.3155   2
  -4   4   5 879.556 110.781   2
   4   4  -5 1048.16 124.062   3
   4   4  -5 730.846 103.241   6
  -4   4   5 934.486 111.067   3
  -4   4   4 1246.42 118.410   2
   4   4  -4 1127.31 96.4535   2
   4   4  -4 1334.56 134.244   3
  -4   4   4 1299.45 126.644   3
   4   4  -3 1008.71 96.4683   2
  -4   4   3 1020.90 116.798   3
  -4   4   3 936.076 98.5085   2
   4   4  -3 1150.22 121.265   3
  -4   4   2 29156.0 451.102   2
   4   4  -2 27925.7 487.642   2
   4   4  -2 30435.5 574.325   3
  -4   4   2 30136.9 586.660   3
   4   4  -1 1084.46 119.051   3
  -4   4   1 1022.72 106.951   4
  -4   4   1 936.260 79.4561   2
   4   4  -1 863.327 98.1535   2
  -4   4   1 986.692 115.835   3
  -4   4   0 1279.84 109.837   6
  -4   4   0 1149.83 115.957   4
   4   4   0 1249.16 124.286   3
   4   4   0 1103.67 112.013   2
  -4   4   0 1291.47 131.584   3
  -4   4   0 1201.90 78.3437   2
   4   4   1 835.719 105.427   3
   4   4   1 921.887 108.425   2
  -4   4  -1 905.503 92.6555   6
  -4   4  -1 849.430 110.687   3
  -4   4  -1 826.367 110.007   4
   4   4   2 22266.8 512.443   2
  -4   4  -2 23038.0 519.396   4
   4   4   2 23572.1 485.863   3
  -4   4  -2 22318.5 444.529   6
  -4   4  -2 23560.4 534.701   3
  -4   4  -3 3592.05 216.719   4
   4   4   3 3640.42 193.500   3
  -4   4  -3 3561.27 189.035   6
  -4   4  -3 3844.45 221.543   3
   4   4   3 3521.14 223.064   2
   4   4   4 33944.8 680.806   2
  -4   4  -4 34513.8 679.239   4
  -4   4  -4 34826.9 656.745   3
  -4   4  -4 34811.3 614.512   6
   4   4   4 32094.5 555.910   3
  -4   4  -5 702.424 122.814   4
   4   4   5 568.568 87.9358   3
  -4   4  -5 675.409 112.117   3
   4   4   5 602.179 128.912   2
  -4   4  -5 662.727 103.364   6
  -4   4  -6 2231.42 200.205   4
   4   4   6 2133.81 143.681   3
  -4   4  -6 2485.08 190.052   6
  -4   4  -6 2404.62 184.644   3
   4   4   6 2003.02 199.581   2
  -4   4  -7 658.799 121.983   4
  -4   4  -7 536.900 104.425   6
   4   4   7 744.844 90.3757   3
   4   4   7 792.811 138.887   2
  -4   4  -7 961.497 129.352   3
  -4   4  -8 4098.32 283.171   4
   4   4   8 4077.07 286.570   2
  -4   4  -8 3956.20 262.087   6
   4   4   8 4269.28 175.058   3
  -4   4  -9 711.165 141.385   4
  -4   4  -9 489.054 111.740   6
   4   4   9 502.102 136.087   2
  -4   4 -10 7414.51 406.404   4
  -4   4 -10 7151.81 378.921   6
   4   4  10 7095.82 400.029   2
  -4   4 -11 896.585 164.238   4
   4   4  11 747.158 163.356   2
   4   4  12 791.506 175.041   2
  -4   4 -12 956.303 182.124   4
  -4   4 -13 1215.72 207.928   4
   4   4  13 1338.15 219.759   2
   4   4  14 142.819 137.761   2
   4   5 -17 46.5052 89.6227   4
   4   5 -16 1101.16 188.177   6
   4   5 -16 1139.77 181.296   4
  -4   5  16 1325.76 223.077   2
   4   5 -15 511.892 121.253   4
  -4   5  15 941.735 187.188   2
   4   5 -15 860.899 166.011   6
   4   5 -14 651.218 139.084   4
  -4   5  14 481.163 151.796   2
   4   5 -14 484.362 143.800   6
   4   5 -13 551.390 129.965   4
   4   5 -13 575.752 140.532   6
  -4   5  13 513.306 144.929   2
   4   5 -12 5173.95 316.813   4
   4   5 -12 5106.46 327.603   6
  -4   5  12 5098.64 344.445   2
  -4   5  11 633.729 109.822   3
   4   5 -11 701.004 132.699   4
  -4   5  11 755.471 156.808   2
   4   5 -11 732.320 133.152   6
   4   5 -10 8430.72 382.741   4
   4   5 -10 8172.69 384.524   6
  -4   5  10 8456.09 405.810   2
   4   5 -10 8339.56 232.523   2
   4   5  -9 1551.17 105.777   2
   4   5  -9 1532.03 170.180   4
   4   5  -9 1649.42 108.037   2
   4   5  -9 1579.91 172.860   6
  -4   5   9 1761.59 199.421   2
   4   5  -8 2696.80 217.171   4
   4   5  -8 2694.79 139.485   2
   4   5  -8 2693.61 213.831   6
  -4   5   8 2196.55 207.056   2
   4   5  -7 418.845 63.5003   2
   4   5  -7 436.987 111.317   6
  -4   5   7 330.879 107.672   2
   4   5  -6 10025.3 280.957   2
   4   5  -6 9879.77 380.045   6
  -4   5   6 10499.9 379.355   2
   4   5  -5 2415.48 145.710   2
  -4   5   5 2380.90 184.544   2
   4   5  -4 11378.1 310.978   2
  -4   5   4 10787.2 348.539   2
  -4   5   3 260.943 73.6477   2
   4   5  -3 184.848 59.1271   2
  -4   5   2 4426.16 200.599   2
   4   5  -2 4549.04 216.880   2
  -4   5   1 255.100 60.4217   2
   4   5  -1 363.472 86.3063   2
   4   5   0 11337.4 367.834   2
  -4   5   0 10949.2 371.346   4
  -4   5   0 10811.1 251.861   2
  -4   5   0 10957.4 336.038   6
   4   5   1 2507.97 188.036   2
  -4   5  -1 2574.03 190.221   4
  -4   5  -1 2925.59 178.267   6
   4   5   1 2681.99 193.425   3
  -4   5  -2 10354.2 387.908   4
   4   5   2 10080.5 376.507   2
  -4   5  -2 10352.9 340.584   6
   4   5   2 9938.43 359.807   3
   4   5   3 521.924 116.302   2
  -4   5  -3 445.915 86.8718   6
  -4   5  -3 532.366 115.234   4
   4   5   3 470.380 98.9095   3
  -4   5  -4 2747.60 214.342   4
   4   5   4 2583.32 189.800   3
   4   5   4 2751.27 222.721   2
  -4   5  -4 2677.89 189.997   6
  -4   5  -5 1553.37 174.477   4
   4   5   5 1335.07 137.150   3
   4   5   5 1604.37 182.806   2
  -4   5  -5 1672.89 166.515   6
  -4   5  -6 7935.78 379.794   4
  -4   5  -6 7946.12 349.586   6
   4   5   6 7795.72 383.998   2
   4   5   6 7535.21 295.581   3
  -4   5  -7 692.989 131.428   4
  -4   5  -7 785.925 125.334   6
   4   5   7 478.630 88.6068   3
   4   5   7 597.870 139.296   2
  -4   5  -8 5400.61 341.600   4
   4   5   8 5005.46 337.634   2
  -4   5  -8 5109.15 308.492   6
  -4   5  -9 571.982 127.137   6
  -4   5  -9 587.888 145.755   4
   4   5   9 392.370 130.578   2
  -4   5 -10 235.636 99.6290   6
  -4   5 -10 240.404 117.447   4
   4   5  10 454.976 145.034   2
  -4   5 -11 589.341 148.159   4
  -4   5 -11 923.947 201.088   6
   4   5  12 1033.60 199.043   2
  -4   5 -12 936.091 193.036   4
   4   6 -16 331.157 113.882   4
   4   6 -15 286.015 118.483   4
  -4   6  15 296.514 151.052   2
   4   6 -15 288.392 121.726   6
   4   6 -14 675.829 153.826   6
   4   6 -14 790.061 157.847   4
  -4   6  14 534.774 159.758   2
   4   6 -13 204.263 115.252   4
   4   6 -13 172.952 87.0375   6
  -4   6  13 120.049 113.913   2
   4   6 -12 422.676 117.271   4
   4   6 -12 462.169 127.114   6
  -4   6  12 341.843 137.198   2
   4   6 -11 1033.91 159.073   4
  -4   6  11 953.972 170.748   2
   4   6 -11 957.818 164.286   6
   4   6 -10 2806.20 124.143   2
   4   6 -10 2847.02 248.931   4
   4   6 -10 3139.19 259.395   6
  -4   6  10 2822.71 259.069   2
  -4   6   9 196.099 97.6586   2
   4   6  -9 166.203 50.9918   2
   4   6  -9 289.209 103.038   6
   4   6  -9 287.871 115.410   4
   4   6  -8 2530.66 220.444   4
   4   6  -8 2806.75 145.299   2
   4   6  -8 2694.12 228.136   6
  -4   6   8 2538.54 225.918   2
   4   6  -7 158.805 52.0063   2
  -4   6   7 309.712 104.792   2
   4   6  -7 254.974 108.593   6
  -4   6   6 679.545 126.480   2
   4   6  -6 645.184 90.1046   2
   4   6  -6 711.321 125.806   6
   4   6  -5 1396.95 120.900   2
  -4   6   5 1286.70 149.158   2
   4   6  -4 9928.08 317.242   2
  -4   6   4 9457.00 351.314   2
  -4   6   3 309.087 85.5886   2
   4   6  -3 308.150 85.0256   2
   4   6  -2 12778.8 391.925   2
  -4   6   2 13223.5 364.675   2
   4   6  -1 238.066 86.2366   2
  -4   6   1 284.372 69.3403   2
   4   6   0 9545.58 366.135   2
  -4   6   0 9492.38 260.405   2
  -4   6   0 9755.29 395.500   4
  -4   6   0 9977.84 362.247   6
  -4   6  -1 1550.32 171.289   4
  -4   6  -1 1311.71 89.4281   2
  -4   6  -1 1411.81 150.327   6
   4   6   1 1346.25 159.700   2
  -4   6  -2 1153.56 151.540   4
  -4   6  -2 926.010 127.357   6
   4   6   2 1055.81 148.690   2
   4   6   3 251.329 96.0408   2
  -4   6  -3 216.859 78.7341   6
  -4   6  -4 2402.70 220.766   4
   4   6   4 2743.73 229.910   2
  -4   6  -4 2642.62 204.285   6
  -4   6  -5 323.114 96.7050   6
  -4   6  -5 286.189 107.328   4
   4   6   5 298.168 124.200   2
  -4   6  -6 3023.41 258.716   4
   4   6   6 3108.41 273.287   2
  -4   6  -6 3163.04 244.113   6
  -4   6  -7 786.038 150.979   4
  -4   6  -7 749.476 142.972   6
   4   6   7 635.138 141.417   2
  -4   6  -8 275.110 116.801   4
  -4   6  -8 356.965 110.914   6
   4   6   8 286.920 125.482   2
   4   6   9 168.769 126.127   2
  -4   6  -9 188.075 113.554   4
  -4   6  -9 3.50297 99.3653   6
   4   6  10 800.802 189.046   2
  -4   6 -10 917.290 186.086   4
  -4   6 -10 1073.97 197.512   6
   4   6  11 252.140 159.068   2
  -4   6 -11 240.259 103.378   4
  -4   6 -11 357.062 141.450   6
  -4   6 -12 284.835 122.995   6
   4   7 -14 181.548 133.243   4
   4   7 -13 587.465 154.987   4
   4   7 -13 223.905 118.830   6
  -4   7  13 213.963 125.874   2
   4   7 -12 2739.03 271.824   4
   4   7 -12 2374.13 259.019   6
  -4   7  12 2494.58 277.496   2
   4   7 -11 555.456 133.824   4
   4   7 -11 641.097 147.887   6
  -4   7  11 598.946 156.437   2
   4   7 -10 2596.55 260.922   4
  -4   7  10 2626.02 264.415   2
   4   7 -10 2738.45 258.178   6
   4   7  -9 961.615 151.833   4
  -4   7   9 670.161 150.077   2
   4   7  -9 941.596 167.111   6
   4   7  -8 644.368 155.003   4
  -4   7   8 685.275 147.074   2
   4   7  -8 577.329 131.288   6
  -4   7   7 326.699 125.094   2
   4   7  -7 105.912 84.2854   6
   4   7  -7 118.471 58.0956   2
   4   7  -6 3342.84 186.532   2
   4   7  -6 3560.33 273.541   6
  -4   7   6 3289.61 250.491   2
  -4   7   5 12.9168 75.7383   2
   4   7  -5 187.073 101.545   6
   4   7  -5 253.963 67.8626   2
   4   7  -4 2836.51 191.297   2
  -4   7   4 3173.93 224.272   2
  -4   7   3 836.011 116.177   2
   4   7  -3 683.979 106.399   2
  -4   7   2 127.045 71.4447   2
   4   7  -2-2.65699 69.0647   2
   4   7  -1 816.443 128.456   2
  -4   7   1 725.347 97.7551   2
  -4   7   0 3164.66 257.995   4
   4   7   0 2877.26 225.943   2
  -4   7   0 2999.07 224.112   6
  -4   7   0 2908.47 161.113   2
  -4   7  -1 324.994 109.075   4
  -4   7  -1 84.6924 41.2657   2
   4   7   1 182.553 87.4447   2
  -4   7  -1 332.712 102.590   6
  -4   7  -2 3438.59 265.635   4
   4   7   2 3018.43 246.343   2
  -4   7  -2 2996.76 225.495   6
  -4   7  -3 413.919 123.401   4
  -4   7  -3 260.196 105.722   6
   4   7   3 211.479 105.899   2
  -4   7  -4 527.216 115.740   6
  -4   7  -4 881.539 159.052   4
   4   7   4 560.766 155.482   2
  -4   7  -5 1176.47 165.301   6
  -4   7  -5 1256.03 187.883   4
   4   7   5 1152.50 184.388   2
  -4   7  -6 2665.28 261.056   4
   4   7   6 2760.25 272.592   2
  -4   7  -6 2857.80 247.561   6
  -4   7  -7 782.798 167.714   4
  -4   7  -7 651.514 152.032   6
   4   7   7 579.580 156.157   2
  -4   7  -8 2439.34 275.126   4
  -4   7  -8 2210.96 237.759   6
   4   7   8 2035.95 254.152   2
  -4   7  -9 327.270 138.876   6
  -4   7  -9 301.760 135.194   4
   4   7   9 491.573 178.538   2
  -4   7 -10 329.885 132.688   6
  -4   7 -11 385.210 115.290   6
   4   8 -11 881.605 181.342   4
  -4   8  11 681.269 169.061   2
   4   8 -10 595.065 168.500   4
   4   8 -10 669.216 153.205   6
  -4   8  10 765.613 180.824   2
  -4   8   9 606.348 167.472   2
   4   8  -9 998.035 178.417   6
   4   8  -9 1106.15 205.061   4
   4   8  -8 6483.41 415.795   4
  -4   8   8 5675.54 369.611   2
   4   8  -8 6048.11 393.070   6
  -4   8   7 99.8218 112.228   2
   4   8  -7 308.100 127.606   6
   4   8  -6 3718.05 304.247   6
  -4   8   6 3362.82 268.770   2
  -4   8   5 653.782 136.601   2
   4   8  -5 915.406 172.019   6
   4   8  -5 647.217 102.342   2
  -4   8   4 207.672 94.5668   2
   4   8  -4 332.448 98.3307   2
   4   8  -3 336.927 80.0223   2
  -4   8   3 523.597 116.623   2
  -4   8   2 4694.06 254.230   2
   4   8  -2 5153.33 297.298   2
  -4   8   1 529.377 134.068   4
  -4   8   1 251.524 75.4708   2
   4   8  -1 382.263 109.854   2
   4   8   0 188.265 97.2259   2
  -4   8   0 512.542 147.208   4
  -4   8   0 466.780 120.337   6
  -4   8  -1 478.998 140.667   4
   4   8   1 861.263 155.682   2
  -4   8  -1 421.854 109.704   6
  -4   8  -2 3397.19 287.907   4
   4   8   2 3343.44 274.770   2
  -4   8  -2 2975.71 251.989   6
  -4   8  -3 205.265 125.948   4
   4   8   3-126.632 118.182   2
  -4   8  -3 50.5259 94.5351   6
  -4   8  -4 5977.27 394.083   4
   4   8   4 6622.97 401.960   2
  -4   8  -4 5841.85 356.098   6
  -4   8  -5 1022.65 179.015   6
  -4   8  -5 734.285 157.735   4
   4   8   5 790.981 178.993   2
   4   8   6 648.965 171.934   2
  -4   8  -6 381.861 110.312   4
  -4   8  -6 537.069 155.399   6
  -4   8  -7 691.367 166.911   6
   4   8   7 691.511 174.512   2
  -4   8  -8 754.299 159.454   6
  -4   8  -9 327.060 146.145   6
  -4   9   9 288.826 127.714   2
  -4   9   8 120.017 115.132   2
  -4   9   7 217.538 134.409   2
   4   9  -6 4203.11 355.886   6
  -4   9   6 4203.64 313.164   2
  -4   9   5 26.0801 112.539   2
   4   9  -5 140.014 115.557   6
  -4   9   4 5674.51 330.297   2
   4   9  -2 1056.65 158.497   2
  -4   9   1 1099.04 193.269   6
  -4   9   1 1463.52 214.038   4
   4   9  -1 1132.99 170.656   2
  -4   9   0 6238.90 404.675   4
   4   9   0 6104.30 360.069   2
  -4   9   0 5654.83 373.923   6
  -4   9  -1-179.079 125.376   4
  -4   9  -1 37.1131 105.363   6
   4   9   1 246.565 126.485   2
  -4   9  -2 5388.87 385.858   4
  -4   9  -2 4895.93 350.514   6
   4   9   2 5137.78 356.383   2
  -4   9  -3 124.705 106.740   6
  -4   9  -3-116.865 132.193   4
   4   9   3 313.361 147.297   2
  -4   9  -4 81.6614 110.234   6
   4   9   4 244.229 120.947   2
   4   9   5 586.710 179.524   2
  -4   9  -5 567.615 159.759   6
  -4   9  -6 1808.73 234.739   6
  -4  10   1 657.118 175.198   6
  -4  10   0 1071.54 182.677   6
   4  10   1 582.821 158.919   2
  -4  10  -1 484.823 132.172   6
   4  10   2 673.654 174.192   2
  -4  10  -2 889.435 164.300   6
   5  -9 -11 373.648 128.127   3
   5  -9 -10 660.815 148.643   3
   5  -9  -9 408.337 137.602   3
   5  -9  -8 400.403 119.350   3
   5  -9  -7 303.596 140.824   3
   5  -9  -6 890.664 179.758   3
  -5  -9   6 867.775 180.339   5
   5  -9  -5 386.569 143.719   3
  -5  -9   5 331.408 146.097   5
   5  -9  -4 300.200 129.973   3
  -5  -9   4 202.013 115.587   5
   5  -9  -3 258.010 130.014   3
  -5  -9   3 168.007 108.648   5
   5  -9  -2 477.573 158.726   3
  -5  -9   2 475.103 155.267   7
  -5  -9   2 799.166 170.769   5
  -5  -9   1-26.5576 123.380   7
   5  -9  -1 233.906 136.065   3
  -5  -9   1 114.525 133.610   5
   5  -9   0 245.259 135.704   3
  -5  -9   0 354.926 151.518   7
  -5  -9   0 370.863 147.752   5
  -5  -9  -1 765.148 197.606   7
   5  -9   1 1057.16 208.570   3
  -5  -9  -1 944.488 180.562   5
  -5  -9  -2 220.515 111.063   5
  -5  -9  -3 475.198 133.550   5
  -5  -9  -4 747.276 178.804   5
  -5  -9  -5 796.739 150.908   5
   5  -8 -12 581.739 156.626   3
   5  -8 -12 727.790 190.563   7
  -5  -8  12 603.020 181.039   5
   5  -8 -11 298.276 133.936   3
   5  -8 -11 165.677 122.095   7
  -5  -8  11 305.157 130.337   5
   5  -8 -10 222.564 140.106   7
   5  -8 -10 388.719 155.298   3
  -5  -8  10 263.403 134.835   5
   5  -8  -9 657.768 178.254   7
   5  -8  -9 630.847 168.219   3
  -5  -8   9 629.104 163.590   5
   5  -8  -8 1869.88 248.642   3
  -5  -8   8 1398.90 210.823   5
   5  -8  -7 490.300 154.670   3
  -5  -8   7 543.747 147.125   5
   5  -8  -6 1373.54 193.605   3
  -5  -8   6 1188.92 191.847   5
   5  -8  -5 62.2026 93.2021   3
  -5  -8   5 101.345 99.0236   5
   5  -8  -4 680.654 152.687   3
  -5  -8   4 528.995 149.354   5
  -5  -8   3 40.3197 107.836   7
   5  -8  -3 161.623 101.537   3
  -5  -8   3 268.811 120.811   5
  -5  -8   2 45.8395 108.953   7
   5  -8  -2 65.9269 102.455   3
  -5  -8   2 263.322 123.786   5
   5  -8  -1 537.752 127.647   3
  -5  -8   1 635.378 162.568   7
  -5  -8   1 628.571 139.345   5
  -5  -8   0 172.495 110.666   7
   5  -8   0 270.002 134.564   3
  -5  -8   0 518.197 151.701   5
   5  -8   1 1360.38 191.923   3
  -5  -8  -1 1620.70 227.209   7
  -5  -8  -1 1486.52 211.546   5
   5  -8   2 749.072 167.321   3
  -5  -8  -2 393.123 131.199   7
  -5  -8  -2 633.143 158.029   5
   5  -8   3 1615.03 226.693   3
  -5  -8  -3 1454.45 218.740   7
  -5  -8  -3 1619.11 213.402   5
  -5  -8  -4 1145.78 210.770   7
   5  -8   4 842.390 165.972   3
  -5  -8  -4 766.202 168.825   5
   5  -8   5 210.753 119.071   5
  -5  -8  -5 32.2966 113.188   7
   5  -8   5-83.1269 128.418   3
  -5  -8  -5-104.886 99.6829   5
   5  -8   6 313.939 138.727   5
   5  -8   6 219.064 110.312   3
  -5  -8  -6 292.364 112.401   5
   5  -8   7 648.013 170.529   5
   5  -8   7 346.532 133.678   3
   5  -8   8 839.712 168.520   5
   5  -8   8 432.640 139.617   3
   5  -7 -16 1149.99 217.117   7
  -5  -7  15 230.605 130.626   5
   5  -7 -15 358.444 120.982   7
   5  -7 -14 478.818 166.117   7
  -5  -7  14 490.469 126.951   5
   5  -7 -13 889.444 195.803   7
   5  -7 -13 1042.14 161.495   3
  -5  -7  13 608.830 156.062   5
   5  -7 -12 505.932 109.356   3
   5  -7 -12 411.545 163.503   7
  -5  -7  12 110.448 98.2687   5
   5  -7 -11 14.5828 138.340   7
  -5  -7  11 202.343 92.4023   5
   5  -7 -11 379.666 111.367   3
   5  -7 -10 661.757 135.304   3
   5  -7 -10 757.624 183.559   7
  -5  -7  10 690.902 144.102   5
  -5  -7   9 1146.74 183.177   5
   5  -7  -9 1003.48 156.713   3
   5  -7  -8 1688.77 199.880   3
  -5  -7   8 1733.50 211.843   5
   5  -7  -7 175.641 87.9484   3
  -5  -7   7 266.156 122.363   5
   5  -7  -6-28.8076 92.7048   3
  -5  -7   6 217.990 103.576   5
  -5  -7   5 4.77150 54.1970   1
   5  -7  -5-40.8764 92.5514   3
  -5  -7   5-33.9287 79.8126   5
  -5  -7   4 137.913 58.5071   1
   5  -7  -4 232.446 99.0074   3
  -5  -7   4 221.909 92.4536   5
   5  -7  -3 325.713 111.459   3
  -5  -7   3 366.185 120.828   5
  -5  -7   2 107.849 98.2766   7
   5  -7  -2 340.259 117.543   3
   5  -7  -2 151.593 65.9694   2
  -5  -7   2 200.450 93.1654   5
  -5  -7   1 202.927 107.707   7
   5  -7  -1 185.659 88.6759   3
  -5  -7   1 62.1208 91.5658   5
   5  -7   0-7.08460 88.5419   3
  -5  -7   0-167.679 113.272   7
  -5  -7   0 150.989 104.375   5
  -5  -7  -1 30.8073 91.0095   7
   5  -7   1-71.4661 114.689   3
  -5  -7  -1 45.9425 81.5129   5
   5  -7   2 235.945 119.446   3
  -5  -7  -2 123.629 103.051   7
  -5  -7  -2-36.3538 95.8626   5
   5  -7   3 1791.47 214.045   3
  -5  -7  -3 1413.84 202.384   7
  -5  -7  -3 1696.56 196.877   5
  -5  -7  -4 680.705 157.381   7
   5  -7   4 771.350 151.397   3
  -5  -7  -4 1155.73 166.876   5
  -5  -7  -5 712.480 131.321   5
  -5  -7  -5 581.011 145.115   7
   5  -7   5 790.602 161.531   3
   5  -7   6 466.313 124.781   5
  -5  -7  -6 414.599 137.967   7
   5  -7   6 449.562 120.261   3
  -5  -7  -6 330.405 100.318   5
   5  -7   7 275.298 93.1563   5
  -5  -7  -7 222.830 78.6752   5
   5  -7   7 346.384 123.570   3
  -5  -7  -7 361.511 150.706   7
   5  -7   8 627.877 144.049   5
  -5  -7  -8 583.976 178.569   7
   5  -7   8 774.274 158.025   3
   5  -7   9 971.462 177.576   3
   5  -7   9 612.641 146.437   5
   5  -6 -17 343.096 117.282   7
  -5  -6  17 595.536 160.874   5
   5  -6 -16-166.187 120.830   7
  -5  -6  16-77.1250 99.8633   5
   5  -6 -15 427.120 139.089   7
  -5  -6  15 597.331 145.399   5
   5  -6 -14 895.686 176.682   7
  -5  -6  14 1056.15 176.729   5
   5  -6 -13 480.661 152.824   7
   5  -6 -13 344.079 100.688   3
  -5  -6  13 389.941 126.627   5
   5  -6 -12 995.838 139.753   3
   5  -6 -12 758.313 158.200   7
  -5  -6  12 911.768 165.634   5
   5  -6 -11 510.748 134.866   7
   5  -6 -11 407.092 103.923   3
  -5  -6  11 437.918 134.667   5
   5  -6 -10 789.696 134.557   3
   5  -6 -10 813.354 157.644   7
  -5  -6  10 1046.93 173.391   5
  -5  -6   9 152.720 74.0184   5
   5  -6  -9 150.731 86.1542   3
   5  -6  -8 394.702 106.767   3
  -5  -6   8 429.926 113.337   5
   5  -6  -7 551.219 112.064   3
  -5  -6   7 460.021 113.446   5
  -5  -6   6 460.261 70.0016   1
   5  -6  -6 524.823 107.231   3
  -5  -6   6 470.216 115.151   5
   5  -6  -5 289.331 101.070   3
  -5  -6   5 142.019 56.4317   1
  -5  -6   5-16.0975 78.5568   5
   5  -6  -4 1156.92 130.082   2
  -5  -6   4 1361.07 130.872   1
   5  -6  -4 1160.96 150.410   3
  -5  -6   4 1218.45 162.384   5
  -5  -6   3 242.323 83.3830   1
   5  -6  -3 195.213 88.3129   3
   5  -6  -3 235.853 76.4012   2
  -5  -6   3 232.594 91.6378   5
  -5  -6   2 59.7127 72.1200   1
   5  -6  -2 258.889 74.2484   2
  -5  -6   2 141.747 90.7761   7
   5  -6  -2 380.834 116.542   3
  -5  -6   2 319.300 110.665   5
  -5  -6   1 1381.15 173.029   7
   5  -6  -1 1415.27 116.932   2
   5  -6  -1 1427.71 185.765   3
  -5  -6   1 1529.09 171.491   5
  -5  -6   0 164.052 99.8215   7
   5  -6   0 85.8461 51.6063   2
   5  -6   0 105.967 81.2432   3
  -5  -6   0 53.5895 75.8220   5
  -5  -6  -1 595.432 138.623   7
   5  -6   1 497.850 57.6096   2
   5  -6   1 551.325 121.319   3
  -5  -6  -1 435.281 100.257   5
   5  -6   2 318.030 28.7690   2
  -5  -6  -2 320.324 109.901   7
   5  -6   2 539.729 123.168   3
  -5  -6  -2 493.500 103.411   5
  -5  -6  -3 490.645 134.225   7
   5  -6   3 562.070 116.671   3
  -5  -6  -3 453.864 99.5214   5
  -5  -6  -4 422.829 123.840   7
   5  -6   4 321.190 107.378   3
  -5  -6  -4 228.393 89.4033   5
  -5  -6  -5 829.171 155.398   7
   5  -6   5 990.209 161.054   3
  -5  -6  -5 951.957 129.027   5
   5  -6   6 243.687 101.072   5
  -5  -6  -6 272.490 125.452   7
   5  -6   6 357.932 112.826   3
  -5  -6  -6 359.679 92.8288   5
   5  -6   7 885.475 135.892   5
   5  -6   7 985.834 161.134   3
  -5  -6  -7 932.589 175.308   7
  -5  -6  -7 1201.58 139.813   5
   5  -6   8 295.876 105.872   5
   5  -6   8 537.762 135.177   3
  -5  -6  -8 432.516 143.414   7
   5  -6   9 804.214 151.268   3
  -5  -6  -9 1093.30 211.678   7
   5  -6   9 928.823 144.053   5
   5  -6  10 605.990 145.859   3
  -5  -6 -10 238.563 120.577   7
   5  -5 -17 118.674 108.396   7
  -5  -5  17 234.435 128.146   5
   5  -5 -16 1517.55 195.704   7
  -5  -5  16 1206.83 171.711   5
   5  -5 -15 902.813 168.983   7
  -5  -5  15 958.904 174.391   5
   5  -5 -14 432.196 117.228   7
   5  -5 -14 339.112 84.5911   3
  -5  -5  14 251.781 115.546   5
   5  -5 -13 1329.38 177.030   7
  -5  -5  13 1189.28 173.626   5
   5  -5 -13 1247.18 143.329   3
   5  -5 -12 4088.73 247.850   3
   5  -5 -12 4112.09 282.334   7
  -5  -5  12 4247.22 295.516   5
   5  -5 -11 598.738 133.636   7
   5  -5 -11 601.537 107.384   3
  -5  -5  11 485.938 118.779   5
   5  -5 -10 4524.80 294.064   7
   5  -5 -10 4743.95 267.821   3
  -5  -5  10 4717.02 299.842   5
   5  -5  -9 1571.47 160.670   3
  -5  -5   9 1731.13 187.289   5
   5  -5  -8 426.407 103.133   3
  -5  -5   8 240.653 91.2109   5
   5  -5  -7 1393.56 159.518   3
  -5  -5   7 1339.84 167.178   5
   5  -5  -6 650.484 117.130   3
  -5  -5   6 662.331 121.666   5
  -5  -5   5 353.515 60.3638   1
   5  -5  -5 368.736 96.6827   3
   5  -5  -5 476.512 100.642   2
  -5  -5   5 430.621 106.462   5
  -5  -5   4 2534.71 144.398   1
  -5  -5   4 2505.14 200.519   5
   5  -5  -4 2829.70 181.678   2
   5  -5  -4 2568.44 204.442   3
  -5  -5   3 1653.60 130.849   1
   5  -5  -3 1500.89 130.457   2
   5  -5  -3 1641.74 168.265   3
  -5  -5   3 1510.42 154.616   5
  -5  -5   2 1539.77 160.436   7
  -5  -5   2 1450.10 128.689   1
   5  -5  -2 1391.38 114.654   2
   5  -5  -2 1566.73 162.963   3
  -5  -5   2 1226.50 140.602   5
  -5  -5   1 2525.48 176.009   1
   5  -5  -1 2315.87 197.200   3
   5  -5  -1 2472.21 140.591   2
  -5  -5   1 2642.73 208.458   7
  -5  -5   1 2621.57 196.453   5
  -5  -5   0 354.200 94.8646   1
   5  -5   0 396.481 106.042   3
  -5  -5   0 284.385 92.8663   7
   5  -5   0 368.194 67.6311   2
  -5  -5   0 315.406 86.3803   5
   5  -5   1 656.899 60.9659   2
  -5  -5  -1 636.158 125.013   7
   5  -5   1 652.468 115.922   3
  -5  -5  -1 610.381 107.694   5
   5  -5   2 1058.58 50.9115   2
  -5  -5  -2 1217.87 162.891   7
   5  -5   2 1337.39 156.693   3
  -5  -5  -2 1224.32 130.726   5
  -5  -5  -3 314.905 106.300   7
   5  -5   3 305.104 95.8869   3
  -5  -5  -3 256.948 73.5650   5
   5  -5   4 1270.02 153.513   3
  -5  -5  -4 1399.61 184.323   7
  -5  -5  -4 1497.97 143.733   5
  -5  -5  -5 4617.49 308.600   7
   5  -5   5 4944.15 285.337   3
  -5  -5  -5 4821.02 239.508   5
   5  -5   6 846.669 134.631   3
  -5  -5  -6 616.787 128.140   7
  -5  -5  -6 691.856 100.326   5
   5  -5   7 4247.28 271.190   3
  -5  -5  -7 4538.68 321.506   7
  -5  -5  -7 4401.02 219.948   5
   5  -5   7 4250.50 250.268   5
   5  -5   8 1404.42 164.409   3
   5  -5   8 1416.25 151.193   5
  -5  -5  -8 1491.60 127.632   5
  -5  -5  -8 1125.43 183.794   7
  -5  -5  -9 267.969 118.124   7
   5  -5   9 241.584 62.6351   1
   5  -5   9 311.189 101.541   3
   5  -5   9 344.352 94.2003   5
   5  -5  10 1092.59 153.725   3
  -5  -5 -10 495.015 139.203   7
  -5  -5 -11 1066.84 190.884   7
  -5  -5 -12 486.603 159.503   7
   5  -4 -17 1099.54 158.730   7
  -5  -4  17 1055.64 161.287   5
   5  -4 -16 870.248 141.016   7
  -5  -4  16 799.113 132.720   5
  -5  -4  15 1671.37 186.885   5
   5  -4 -15 1801.69 192.367   7
   5  -4 -14 4494.88 283.769   7
   5  -4 -14 4183.82 213.608   3
  -5  -4  14 4394.87 288.867   5
  -5  -4  13 591.922 90.7378   7
   5  -4 -13 517.995 110.383   7
   5  -4 -13 610.138 99.2825   3
  -5  -4  13 533.177 110.506   5
  -5  -4  12 6028.59 320.813   5
   5  -4 -12 5507.17 257.599   3
   5  -4 -12 5098.47 287.519   7
   5  -4 -11 191.951 87.9710   7
   5  -4 -11 284.820 77.9558   3
  -5  -4  11 124.928 79.8509   5
   5  -4 -10 1105.66 143.950   7
   5  -4 -10 997.461 124.082   3
  -5  -4  10 1209.21 150.506   5
   5  -4  -9 564.827 111.022   7
   5  -4  -9 703.257 107.165   3
  -5  -4   9 811.664 123.597   5
   5  -4  -8 4450.34 235.183   3
  -5  -4   8 4118.97 246.413   5
   5  -4  -7 1507.08 145.830   3
   5  -4  -7 1473.47 150.355   5
  -5  -4   7 1669.37 156.097   5
   5  -4  -7 1504.95 152.460   2
   5  -4  -6 1584.92 146.684   3
  -5  -4   6 1323.72 147.024   5
   5  -4  -6 1334.21 135.313   2
   5  -4  -5 2558.63 169.117   2
   5  -4  -5 2559.03 181.346   3
  -5  -4   5 2392.99 178.133   5
   5  -4  -4 878.162 101.295   2
   5  -4  -4 1041.88 124.801   3
  -5  -4   4 802.855 79.0632   1
  -5  -4   4 733.368 103.308   5
  -5  -4   3 1675.03 142.566   7
   5  -4  -3 1759.15 150.760   3
  -5  -4   3 1845.37 154.085   5
  -5  -4   3 1775.10 120.164   1
   5  -4  -3 1695.53 125.561   2
  -5  -4   2 1653.25 141.486   7
  -5  -4   2 1819.66 132.887   1
   5  -4  -2 1837.13 158.443   3
   5  -4  -2 1640.97 115.860   2
  -5  -4   2 1738.76 149.701   5
  -5  -4   1 770.745 110.371   7
  -5  -4   1 941.333 100.857   1
   5  -4  -1 933.648 84.9698   2
   5  -4  -1 974.684 118.657   3
  -5  -4   1 842.150 108.639   5
  -5  -4   0 2515.45 165.797   1
  -5  -4   0 2555.93 183.087   7
   5  -4   0 2591.04 181.078   3
   5  -4   0 2683.68 120.357   2
  -5  -4   0 2348.50 161.975   5
   5  -4   1 1432.80 141.452   3
   5  -4   1 1464.75 81.4075   2
  -5  -4  -1 1566.36 150.283   7
  -5  -4  -1 1234.44 128.731   1
  -5  -4  -1 1387.66 126.442   5
  -5  -4  -2 1453.31 146.353   1
  -5  -4  -2 1563.28 162.940   7
   5  -4   2 1417.34 64.5589   2
   5  -4   2 1666.63 153.293   3
  -5  -4  -2 1407.66 125.916   5
  -5  -4  -3 4325.86 263.166   7
   5  -4   3 4482.53 243.333   3
  -5  -4  -3 4150.73 208.617   5
  -5  -4  -4 640.705 116.175   7
   5  -4   4 691.786 108.467   3
  -5  -4  -4 502.512 84.0863   5
  -5  -4  -5 1112.77 158.435   7
   5  -4   5 909.397 123.865   3
  -5  -4  -5 1272.31 115.860   5
  -5  -4  -6 187.845 93.2679   7
   5  -4   6 360.916 91.0091   3
  -5  -4  -6 200.313 59.2534   5
   5  -4   7 5928.99 287.134   3
  -5  -4  -7 5668.98 338.059   7
  -5  -4  -7 5963.49 211.507   5
   5  -4   7 5610.25 255.958   5
   5  -4   8 489.085 88.6821   5
  -5  -4  -8 713.811 149.156   7
   5  -4   8 685.578 102.824   1
  -5  -4  -8 747.875 76.0081   5
   5  -4   8 634.070 111.283   3
  -5  -4  -9 4249.68 319.144   7
   5  -4   9 4520.80 250.318   3
   5  -4   9 4395.56 227.270   1
   5  -4   9 4900.52 236.333   5
   5  -4  10 1771.24 153.321   1
   5  -4  10 1830.37 164.587   3
  -5  -4 -10 1882.68 223.519   7
  -5  -4 -11 660.875 170.945   7
  -5  -4 -12 1130.93 196.834   7
  -5  -4 -13 997.872 195.090   7
   5  -3 -17 454.382 105.338   7
  -5  -3  17 401.988 100.296   5
   5  -3 -16 2953.32 223.762   7
  -5  -3  16 2421.28 207.914   5
   5  -3 -15 761.252 86.9719   3
   5  -3 -15 886.879 132.470   7
  -5  -3  15 941.939 135.345   5
   5  -3 -14 2814.44 159.525   3
   5  -3 -14 2782.44 203.315   7
  -5  -3  14 3339.90 232.217   5
  -5  -3  13 1746.32 167.494   5
   5  -3 -13 2011.63 139.502   3
   5  -3 -13 1936.90 168.385   7
  -5  -3  13 2230.21 142.742   7
  -5  -3  12 1164.15 102.578   7
   5  -3 -12 1170.55 113.982   3
   5  -3 -12 1238.53 134.384   7
   5  -3 -12 1184.01 136.713   5
  -5  -3  12 1173.19 142.962   5
   5  -3 -11 2113.07 170.997   7
   5  -3 -11 1811.57 139.264   3
   5  -3 -11 1796.98 163.472   5
  -5  -3  11 1684.93 168.779   5
   5  -3 -10 8374.66 285.345   3
   5  -3 -10 8463.92 312.901   7
   5  -3 -10 8450.80 331.374   5
  -5  -3  10 8222.54 328.808   5
   5  -3  -9 515.994 94.6792   5
   5  -3  -9 630.673 105.838   7
   5  -3  -9 533.192 83.8700   3
  -5  -3   9 654.647 109.195   5
   5  -3  -8 1019.95 126.533   2
   5  -3  -8 1026.71 121.413   5
   5  -3  -8 1030.11 106.950   3
  -5  -3   8 1055.92 121.502   5
   5  -3  -7 668.490 104.607   2
   5  -3  -7 648.321 95.9332   5
   5  -3  -7 538.253 83.8249   3
  -5  -3   7 687.179 101.430   5
   5  -3  -6 927.954 108.760   2
   5  -3  -6 951.294 107.965   3
   5  -3  -6 865.498 105.423   5
  -5  -3   6 875.456 106.479   5
   5  -3  -5 1479.87 128.338   3
   5  -3  -5 1539.28 133.651   5
   5  -3  -5 1482.55 123.470   2
  -5  -3   5 1309.83 128.304   5
   5  -3  -4 5923.69 241.987   3
  -5  -3   4 6025.02 244.845   5
   5  -3  -4 6260.04 228.262   2
  -5  -3   3 1479.40 115.090   7
   5  -3  -3 1419.70 125.074   3
   5  -3  -3 1491.30 110.939   2
  -5  -3   3 1307.06 92.0291   1
  -5  -3   3 1443.15 122.695   5
   5  -3  -2 1425.69 101.026   2
  -5  -3   2 1536.40 121.531   7
   5  -3  -2 1507.47 125.884   3
  -5  -3   2 1541.36 109.209   1
  -5  -3   2 1385.70 120.732   5
  -5  -3   1 5458.10 228.694   7
  -5  -3   1 5622.82 212.703   1
   5  -3  -1 5880.63 241.558   3
  -5  -3   1 5797.37 224.700   5
   5  -3  -1 5934.77 178.239   2
  -5  -3   0 1573.55 134.364   7
   5  -3   0 1436.97 127.816   3
  -5  -3   0 1684.86 128.915   1
  -5  -3   0 1513.39 119.152   5
   5  -3   0 1609.64 88.5929   2
  -5  -3  -1 1065.74 123.520   7
   5  -3   1 982.323 108.972   3
  -5  -3  -1 835.596 89.1010   5
  -5  -3  -1 860.558 104.540   1
   5  -3   1 878.985 61.9987   2
   5  -3   2 596.521 48.3461   2
   5  -3   2 575.573 87.9879   3
  -5  -3  -2 730.536 103.571   2
  -5  -3  -2 608.667 107.964   7
   5  -3   2 636.074 92.2714   4
  -5  -3  -2 604.881 93.8163   1
  -5  -3  -2 651.019 78.3160   5
   5  -3   3 1085.62 57.9706   2
   5  -3   3 1094.00 59.0754   2
  -5  -3  -3 1143.01 129.752   2
   5  -3   3 980.804 120.763   4
  -5  -3  -3 1308.42 142.080   7
   5  -3   3 1051.78 104.494   6
   5  -3   3 1309.04 124.594   3
  -5  -3  -3 1216.36 96.1199   5
  -5  -3  -3 1059.67 125.633   1
   5  -3   4 567.300 44.3589   2
  -5  -3  -4 392.145 91.9536   7
   5  -3   4 549.573 90.5817   3
   5  -3   4 592.498 87.2769   6
  -5  -3  -4 678.396 76.4248   5
  -5  -3  -5 8542.97 224.393   5
  -5  -3  -5 8036.83 352.736   7
   5  -3   5 8357.83 298.520   3
   5  -3   5 8042.46 296.916   6
   5  -3   5 8341.88 158.889   2
   5  -3   6 1945.44 152.924   3
   5  -3   6 1895.05 164.703   6
   5  -3   6 1875.25 84.0842   2
  -5  -3  -6 1728.17 184.105   7
  -5  -3  -6 1675.15 95.9701   5
  -5  -3  -7 1196.94 163.342   7
   5  -3   7 1380.65 129.596   3
   5  -3   7 1441.26 79.5093   2
  -5  -3  -7 1353.90 79.1790   5
   5  -3   7 1385.68 115.638   5
   5  -3   7 1307.24 128.229   1
  -5  -3  -8 2006.39 214.374   7
   5  -3   8 1958.39 98.6164   2
   5  -3   8 1843.74 150.759   3
   5  -3   8 2045.52 158.284   1
  -5  -3  -8 1557.47 62.5830   5
   5  -3   8 2088.54 136.577   5
  -5  -3  -9 3095.72 264.018   7
   5  -3   9 3088.52 182.291   3
   5  -3   9 3038.07 194.914   1
   5  -3   9 3101.16 130.653   2
   5  -3   9 3037.06 157.768   5
   5  -3  10 952.124 107.475   3
  -5  -3 -10 707.327 141.986   7
   5  -3  10 678.380 105.380   1
   5  -3  11 2612.93 197.355   1
  -5  -3 -11 2806.98 267.249   7
   5  -3  12 614.846 118.353   1
  -5  -3 -12 590.905 155.540   7
  -5  -3 -13 733.093 163.584   7
  -5  -3 -14 381.687 135.610   7
   5  -2 -17 437.855 97.2574   7
  -5  -2  17 353.617 95.1304   5
   5  -2 -16 1754.71 160.137   7
  -5  -2  16 1554.28 159.961   5
   5  -2 -15 733.610 111.777   7
   5  -2 -15 633.344 70.2659   3
  -5  -2  15 692.944 113.083   5
   5  -2 -15 770.231 115.172   5
  -5  -2  14 2415.12 184.833   5
  -5  -2  14 2496.32 143.980   7
   5  -2 -14 2432.96 137.053   3
   5  -2 -14 2299.83 178.955   5
   5  -2 -14 2742.15 181.153   7
  -5  -2  13 1471.81 104.304   7
   5  -2 -13 1373.76 129.805   7
   5  -2 -13 1201.71 101.790   3
   5  -2 -13 1277.28 131.135   5
  -5  -2  13 1290.20 136.795   5
  -5  -2  12 7572.16 214.212   7
   5  -2 -12 7403.68 267.346   7
   5  -2 -12 7436.79 243.161   3
   5  -2 -12 7020.78 288.112   5
  -5  -2  12 7214.41 302.395   5
  -5  -2  11 1549.31 93.7510   7
   5  -2 -11 1440.74 123.749   7
   5  -2 -11 1477.51 115.200   3
   5  -2 -11 1614.39 139.378   5
  -5  -2  11 1266.37 130.445   5
   5  -2 -10-19.9934 50.3822   7
  -5  -2  10-3.54020 29.5301   7
  -5  -2  10-33.8418 66.3292   6
   5  -2 -10-4.58205 55.0764   5
  -5  -2  10 80.4870 57.5355   5
   5  -2 -10 91.1360 48.6492   3
   5  -2  -9 2641.96 170.307   5
   5  -2  -9 2742.48 155.293   7
  -5  -2   9 3021.79 192.810   6
   5  -2  -9 2556.88 146.872   3
   5  -2  -9 2639.77 189.637   2
  -5  -2   9 2562.15 172.062   5
   5  -2  -8 2066.64 137.397   7
  -5  -2   8 2510.85 164.185   6
   5  -2  -8 2535.30 165.069   5
   5  -2  -8 2354.45 141.928   3
   5  -2  -8 2357.14 167.616   2
  -5  -2   8 2387.18 160.585   5
   5  -2  -7 278.462 74.2339   2
   5  -2  -7 232.206 62.4009   5
  -5  -2   7 229.100 60.5261   5
   5  -2  -7 342.289 66.0918   3
   5  -2  -6 4170.26 191.696   5
   5  -2  -6 4184.05 198.556   2
  -5  -2   6 3974.69 190.700   5
   5  -2  -6 3915.33 177.336   3
  -5  -2   5 1804.64 92.5228   7
   5  -2  -5 1830.81 124.485   3
  -5  -2   5 1807.58 132.042   5
   5  -2  -5 1890.02 133.527   5
   5  -2  -5 1966.75 131.809   2
  -5  -2   4 1047.48 76.7499   7
   5  -2  -4 1128.35 108.095   5
   5  -2  -4 1159.01 101.984   3
  -5  -2   4 976.156 98.4744   5
   5  -2  -4 1153.52 97.5080   2
   5  -2  -3 728.513 78.5951   2
  -5  -2   3 807.102 74.1942   7
   5  -2  -3 725.764 83.6515   5
   5  -2  -3 842.870 90.7959   3
  -5  -2   3 781.260 88.6164   5
   5  -2  -2 863.847 76.0414   2
  -5  -2   2 838.173 79.6391   7
   5  -2  -2 802.010 88.2994   5
   5  -2  -2 843.948 88.6317   3
  -5  -2   2 884.112 88.0197   5
   5  -2  -1 1177.26 87.7369   4
   5  -2  -1 1008.03 77.8659   2
  -5  -2   1 1081.44 93.2195   7
  -5  -2   1 957.565 86.2954   5
   5  -2  -1 1017.80 94.5025   3
  -5  -2   0 1831.75 122.613   7
   5  -2   0 1866.28 93.6299   2
   5  -2   0 1745.90 120.693   3
  -5  -2   0 1681.29 121.605   1
   5  -2   0 1994.33 121.050   4
  -5  -2   0 1874.03 110.599   5
   5  -2   1 4395.90 186.329   4
  -5  -2  -1 4239.92 197.658   7
   5  -2   1 4150.26 183.754   3
  -5  -2  -1 4076.10 190.159   1
  -5  -2  -1 4142.24 154.357   5
   5  -2   1 4197.51 141.398   6
   5  -2   2 432.515 61.3657   6
   5  -2   2 256.598 64.5796   4
   5  -2   2 325.947 67.2435   3
  -5  -2  -2 359.295 78.2525   7
  -5  -2  -2 342.963 52.7132   5
  -5  -2  -2 310.988 71.8930   1
  -5  -2  -3 2445.99 107.820   5
  -5  -2  -3 2338.43 166.366   1
   5  -2   3 2440.41 160.889   4
  -5  -2  -3 2675.12 173.613   2
   5  -2   3 2476.90 103.386   2
   5  -2   3 2581.03 139.621   6
  -5  -2  -3 2689.81 175.201   7
   5  -2   3 2484.97 145.238   3
   5  -2   4 2744.93 179.696   4
  -5  -2  -4 2748.02 183.210   2
   5  -2   4 2801.03 117.527   2
  -5  -2  -4 2540.10 181.425   7
  -5  -2  -4 2765.90 105.139   5
   5  -2   4 2795.61 158.661   6
   5  -2   4 2634.79 149.536   3
  -5  -2  -4 2719.99 189.666   1
   5  -2   4 2671.06 180.442   7
   5  -2   5 33.3371 42.3228   3
   5  -2   5 130.622 64.0273   7
  -5  -2  -5 65.2542 61.5081   2
  -5  -2  -5 24.7338 19.2625   5
  -5  -2  -5 103.672 73.9881   7
   5  -2   5 68.1508 47.7437   6
   5  -2   5 35.2963 35.5603   2
  -5  -2  -6 1306.45 150.174   7
   5  -2   6 1477.43 101.273   2
   5  -2   6 1470.09 137.012   6
   5  -2   6 1754.19 122.604   3
   5  -2   6 1580.88 131.920   1
   5  -2   6 1421.80 93.6650   5
   5  -2   7 6884.23 234.878   3
   5  -2   7 7211.71 226.165   2
   5  -2   7 7194.10 277.014   1
   5  -2   7 7020.81 194.797   5
  -5  -2  -7 7136.87 339.752   7
   5  -2   8 1314.06 137.234   1
   5  -2   8 1458.36 117.303   2
  -5  -2  -8 1308.73 164.983   7
   5  -2   8 1396.46 110.669   3
   5  -2   8 1332.22 83.9900   5
  -5  -2  -9 2910.37 242.997   7
   5  -2   9 2679.54 141.693   3
   5  -2   9 3055.85 170.374   2
   5  -2   9 2455.03 108.571   5
   5  -2   9 2950.15 198.674   1
   5  -2   9 2644.50 107.346   5
   5  -2  10 968.398 110.347   2
  -5  -2 -10 806.337 147.650   7
   5  -2  10 678.700 112.203   1
   5  -2  11 1797.26 171.830   1
   5  -2  11 1924.24 157.390   2
  -5  -2 -11 1577.56 199.444   7
   5  -2  12 468.494 114.286   1
  -5  -2 -12 691.520 156.463   7
   5  -2  13 3230.66 247.812   1
  -5  -2 -13 3295.61 301.795   7
  -5  -2 -14 695.920 168.278   7
  -5  -1  19 859.521 155.746   2
  -5  -1  18 724.506 150.582   2
  -5  -1  17 236.120 101.279   2
  -5  -1  17 231.135 84.2587   5
  -5  -1  16 4810.33 282.727   2
  -5  -1  16 3987.86 233.012   5
   5  -1 -15 754.061 78.7869   3
   5  -1 -15 856.467 105.061   7
  -5  -1  15 689.337 103.749   5
  -5  -1  15 1078.78 138.317   2
   5  -1 -15 907.213 117.906   5
   5  -1 -14 1096.50 108.866   7
  -5  -1  14 1046.63 101.282   7
   5  -1 -14 1072.32 89.9681   3
   5  -1 -14 1217.62 146.286   1
  -5  -1  14 1273.09 136.376   5
   5  -1 -14 1186.76 131.159   5
  -5  -1  14 1314.83 150.156   2
   5  -1 -13 1473.77 115.325   7
  -5  -1  13 1487.00 106.437   7
   5  -1 -13 1561.02 145.156   5
  -5  -1  13 1585.16 146.512   5
   5  -1 -13 1583.47 152.063   1
  -5  -1  13 1427.59 152.079   2
   5  -1 -13 1392.75 104.649   3
  -5  -1  12 1424.28 95.0955   7
   5  -1 -12 1289.37 102.514   7
   5  -1 -12 1318.16 128.645   5
   5  -1 -12 1277.32 102.226   3
  -5  -1  12 1334.86 139.570   2
  -5  -1  12 1294.46 128.762   5
  -5  -1  11 2066.66 157.357   2
  -5  -1  11 2142.35 100.368   7
   5  -1 -11 1925.03 177.600   2
  -5  -1  11 1891.31 168.921   6
  -5  -1  11 1987.02 149.895   5
   5  -1 -11 2014.65 119.575   7
   5  -1 -11 2195.06 155.865   5
   5  -1 -11 2003.26 123.779   3
  -5  -1  10 3261.74 106.935   7
  -5  -1  10 3236.58 183.659   2
  -5  -1  10 3292.60 181.535   5
   5  -1 -10 3099.86 173.795   5
  -5  -1  10 3334.74 196.422   6
   5  -1 -10 2923.65 144.729   3
   5  -1 -10 3064.60 131.870   7
   5  -1 -10 2946.14 199.087   2
   5  -1  -9 319.460 58.3614   3
   5  -1  -9 438.378 93.1437   2
   5  -1  -9 330.083 51.0634   7
  -5  -1   9 269.499 30.7963   7
  -5  -1   9 358.099 80.7997   6
   5  -1  -9 255.153 65.1354   5
  -5  -1   9 351.625 67.1436   5
  -5  -1   8 1690.48 51.8570   7
   5  -1  -8 2022.36 99.6426   7
   5  -1  -8 2084.14 119.764   3
  -5  -1   8 2044.44 138.909   6
   5  -1  -8 2047.86 137.135   5
  -5  -1   8 1980.54 137.747   5
   5  -1  -8 2122.00 155.742   2
   5  -1  -7 340.246 57.0315   3
  -5  -1   7 262.693 57.8894   6
   5  -1  -7 425.277 84.1077   2
   5  -1  -7 344.050 47.4013   7
   5  -1  -7 485.080 71.9276   5
  -5  -1   7 456.150 73.4875   5
   5  -1  -6 952.631 95.9704   2
  -5  -1   6 892.465 83.4907   6
   5  -1  -6 1095.70 101.119   5
  -5  -1   6 797.855 85.0138   5
   5  -1  -6 944.715 85.2514   3
   5  -1  -5 1557.15 112.837   2
  -5  -1   5 1725.03 114.790   5
   5  -1  -5 1512.03 114.325   5
  -5  -1   5 1494.83 48.9643   7
   5  -1  -5 1489.55 101.445   3
   5  -1  -4 2103.86 122.735   2
   5  -1  -4 2401.78 132.150   5
  -5  -1   4 2037.16 121.549   5
  -5  -1   4 2180.45 75.0620   7
   5  -1  -4 2054.42 119.135   3
   5  -1  -3 2427.90 79.3417   4
  -5  -1   3 2588.28 98.2349   7
   5  -1  -3 2376.03 121.333   2
  -5  -1   3 2494.97 127.756   5
   5  -1  -3 2465.00 128.222   3
   5  -1  -3 2609.11 131.931   5
  -5  -1   2 2573.93 112.630   7
   5  -1  -2 2688.08 99.0138   4
   5  -1  -2 2912.70 132.633   5
   5  -1  -2 2587.37 131.238   3
  -5  -1   2 2604.97 123.695   5
   5  -1  -1 2315.12 104.430   4
  -5  -1   1 2261.44 118.229   7
   5  -1  -1 1944.85 57.1566   6
   5  -1  -1 2295.13 117.422   5
  -5  -1   1 2116.07 107.413   5
   5  -1  -1 2170.92 120.875   3
   5  -1   0 1498.18 66.8971   6
   5  -1   0 1528.72 96.8119   4
  -5  -1   0 1612.90 109.476   7
  -5  -1   0 1492.83 86.4564   5
   5  -1   0 1635.07 103.234   3
   5  -1   0 1584.58 95.6803   5
   5  -1   1 866.764 85.6604   4
  -5  -1  -1 712.688 60.0693   5
  -5  -1  -1 685.622 81.1538   7
   5  -1   1 835.653 62.7174   6
   5  -1   1 863.359 70.7865   5
   5  -1   1 770.239 79.3407   3
   5  -1   1 952.611 96.1802   7
   5  -1   2 434.491 71.5464   4
   5  -1   2 244.588 57.2448   7
  -5  -1  -2 413.770 79.9481   7
   5  -1   2 344.473 51.2199   6
   5  -1   2 417.759 50.0418   5
   5  -1   2 370.973 51.4764   2
  -5  -1  -2 351.906 39.7094   5
   5  -1   2 418.008 59.2854   3
   5  -1   3 2229.28 116.571   2
   5  -1   3 2595.14 128.801   3
   5  -1   3 2285.28 156.175   7
  -5  -1  -3 2092.72 76.3416   5
   5  -1   3 2192.86 125.755   6
   5  -1   3 2177.52 148.744   4
   5  -1   3 2326.22 99.7089   5
  -5  -1  -3 2103.87 153.219   7
  -5  -1  -4 429.196 79.9543   2
   5  -1   4 249.452 71.0933   4
   5  -1   4 368.932 75.3562   7
  -5  -1  -4 286.474 76.0540   7
   5  -1   4 374.004 56.9642   2
   5  -1   4 342.144 66.4514   6
   5  -1   4 379.566 70.7116   1
   5  -1   4 345.768 42.7992   5
  -5  -1  -4 193.454 20.7420   5
   5  -1   4 360.476 56.1664   3
   5  -1   5 3026.69 151.955   2
   5  -1   5 3000.39 192.941   4
  -5  -1  -5 3260.24 204.575   7
  -5  -1  -5 3115.01 191.827   2
   5  -1   5 3032.56 173.838   1
   5  -1   5 3154.71 198.062   7
   5  -1   5 2985.40 100.838   5
   5  -1   5 2999.34 175.116   6
   5  -1   5 2992.89 136.969   3
  -5  -1  -6 2052.88 159.958   2
   5  -1   6 1763.36 126.855   2
   5  -1   6 1784.72 146.281   1
   5  -1   6 1746.47 147.148   6
   5  -1   6 1811.91 104.837   3
   5  -1   6 1714.57 68.6436   5
   5  -1   6 1452.58 60.8243   5
  -5  -1  -6 2111.76 179.684   7
   5  -1   7 1376.87 133.789   1
  -5  -1  -7 1422.82 139.806   2
  -5  -1  -7 1466.48 156.803   7
   5  -1   7 1470.63 91.2392   3
   5  -1   7 1466.63 127.214   2
   5  -1   8 1241.02 79.9297   3
   5  -1   8 1402.70 132.525   2
   5  -1   8 1522.51 152.443   1
  -5  -1  -8 1405.74 168.095   7
  -5  -1  -9 1284.82 167.511   7
   5  -1   9 973.337 62.8695   3
   5  -1   9 1500.54 154.835   1
   5  -1   9 1182.40 129.882   2
   5  -1  10 793.904 111.764   2
   5  -1  10 891.304 133.132   1
  -5  -1 -10 876.596 146.934   7
   5  -1  11 5094.36 288.973   1
  -5  -1 -11 5074.40 337.690   7
   5  -1  11 5368.08 274.756   2
   5  -1  12 409.081 107.046   2
   5  -1  12 324.792 108.190   1
   5  -1  13 897.285 147.821   2
   5  -1  13 616.908 135.648   1
  -5   0  21 368.652 145.441   2
  -5   0  20-17.5017 109.792   2
   5   0 -19 905.277 137.586   4
  -5   0  19 1210.47 195.353   2
   5   0 -18 994.869 138.841   4
  -5   0  18 946.032 166.699   2
   5   0 -17 1033.88 136.769   4
  -5   0  17 1092.96 131.735   5
  -5   0  17 1361.16 184.379   2
   5   0 -16 62.2929 39.6899   3
   5   0 -16-15.0240 59.1188   4
  -5   0  16-46.8358 66.6256   5
  -5   0  16 93.7816 89.2352   2
   5   0 -15 1668.76 146.258   4
  -5   0  15 1588.08 151.372   4
  -5   0  15 1848.45 189.951   2
   5   0 -15 1562.47 144.099   1
  -5   0  15 1562.27 145.898   5
  -5   0  15 1676.47 141.949   7
   5   0 -15 1600.66 108.384   3
   5   0 -15 1549.18 147.351   5
   5   0 -14 1729.04 143.080   4
  -5   0  14 1562.47 150.040   4
   5   0 -14 2057.09 156.340   1
  -5   0  14 1926.45 187.084   2
  -5   0  14 1707.17 149.472   5
  -5   0  14 1810.90 136.252   7
   5   0 -14 1688.81 149.285   5
   5   0 -14 1914.24 119.055   3
   5   0 -13 745.526 79.5615   3
   5   0 -13 645.245 89.8224   4
  -5   0  13 621.903 95.7142   5
  -5   0  13 769.726 92.2804   7
  -5   0  13 855.021 102.814   4
  -5   0  13 625.315 119.058   2
   5   0 -13 501.684 96.1283   5
   5   0 -13 773.977 103.309   1
   5   0 -12 38.3249 38.7521   3
   5   0 -12-21.5301 77.5125   2
   5   0 -12 40.7916 40.0247   4
  -5   0  12 128.967 59.5950   4
  -5   0  12 72.4963 54.1999   5
   5   0 -12 25.4817 61.4590   1
  -5   0  12 11.6299 49.0884   7
  -5   0  12 74.5307 71.9098   2
   5   0 -12 73.0824 64.4420   5
   5   0 -11 386.315 60.8344   3
   5   0 -11 370.043 97.9709   2
  -5   0  11 455.564 71.7561   4
   5   0 -11 338.918 59.7167   4
  -5   0  11 300.246 70.6486   5
  -5   0  11 340.522 83.8146   6
  -5   0  11 418.388 97.6450   2
   5   0 -11 422.778 78.4851   5
  -5   0  10 15.2951 41.4312   4
   5   0 -10 53.4845 36.3054   3
   5   0 -10-0.68078 32.0289   4
   5   0 -10-34.6255 56.9171   2
  -5   0  10-36.5271 56.3252   6
  -5   0  10 5.23624 46.8518   5
  -5   0  10 39.2612 61.4231   2
   5   0 -10-31.5520 55.6165   5
   5   0  -9 1524.87 85.8419   4
  -5   0   9 1528.31 90.7292   4
  -5   0   9 1612.37 134.281   2
   5   0  -9 1779.82 131.407   6
   5   0  -9 1938.96 135.542   5
  -5   0   9 1791.66 128.674   5
   5   0  -9 1590.68 68.0260   7
  -5   0   9 1588.25 130.942   6
   5   0  -9 1674.50 140.838   2
  -5   0   8 5585.58 222.793   2
   5   0  -8 5309.89 136.025   4
   5   0  -8 4738.91 93.7668   7
  -5   0   8 5606.86 210.797   6
   5   0  -8 5376.34 200.509   6
  -5   0   8 5223.07 207.001   5
   5   0  -8 5209.24 218.953   2
   5   0  -8 5217.49 209.182   5
   5   0  -7 500.590 39.8889   4
   5   0  -7 504.476 78.4049   2
  -5   0   7 318.382 56.2847   6
  -5   0   7 418.355 69.9884   5
   5   0  -7 431.096 61.2506   6
   5   0  -7 332.914 64.5354   5
  -5   0   7 417.207 73.5650   2
   5   0  -6 305.766 27.9110   4
  -5   0   6 451.741 70.9375   5
   5   0  -6 367.364 54.0613   6
   5   0  -6 350.025 66.2156   2
   5   0  -6 487.488 73.0736   5
  -5   0   6 396.092 60.8815   6
   5   0  -5 17.7413 43.7379   5
  -5   0   5 7.40618 29.7348   6
   5   0  -5-16.2097 30.4261   6
  -5   0   5 24.1895 44.2700   5
   5   0  -5-2.31634 44.4364   2
   5   0  -4 73.2149 26.5858   6
   5   0  -4 53.4828 20.4947   7
  -5   0   4 112.456 43.7626   5
   5   0  -4 20.1672 46.3282   5
   5   0  -3 951.073 52.6107   4
   5   0  -3 924.929 60.8224   7
   5   0  -3 875.263 48.5077   6
  -5   0   3 893.932 79.4874   5
   5   0  -3 901.511 77.2948   5
   5   0  -2 1058.83 66.0723   4
  -5   0   2 1000.58 77.3929   5
   5   0  -2 921.007 68.4692   7
   5   0  -2 967.012 72.2626   5
   5   0  -1 73.8063 40.3608   3
  -5   0   1 181.460 48.0235   4
   5   0  -1 71.0982 36.8072   4
   5   0  -1 42.6282 40.7083   7
  -5   0   1 78.4259 38.5118   5
   5   0  -1 66.7837 40.0432   5
   5   0   0 58.7225 38.8531   3
  -5   0   0 78.4656 46.0144   4
   5   0   0 38.4609 41.3520   4
   5   0   0-46.0565 48.9115   7
  -5   0   0-49.7337 44.4382   7
  -5   0   0-1.09143 32.9383   5
   5   0   0 37.8475 31.0823   5
   5   0   1 459.676 55.9814   3
  -5   0  -1 279.914 58.4767   4
   5   0   1 404.683 63.3564   4
   5   0   1 327.830 57.1528   2
  -5   0  -1 461.620 71.5571   7
   5   0   1 429.316 76.1558   7
  -5   0  -1 427.551 50.0063   5
   5   0   1 404.300 44.0458   5
   5   0   2 441.656 54.3500   3
  -5   0  -2 526.988 79.6851   7
  -5   0  -2 471.598 71.6984   4
   5   0   2 520.967 78.6270   1
   5   0   2 505.024 75.5372   4
   5   0   2 387.512 71.3813   7
   5   0   2 432.814 63.7623   2
   5   0   2 468.449 41.6222   5
  -5   0  -3 5238.12 222.339   7
  -5   0  -3 6181.10 236.880   4
   5   0   3 5314.48 221.856   4
   5   0   3 5076.83 196.455   2
   5   0   3 5014.38 216.866   7
   5   0   3 5469.80 216.155   1
   5   0   3 5013.25 107.656   5
   5   0   3 5216.58 159.290   3
  -5   0  -4 1519.20 132.254   4
   5   0   4 1468.58 119.691   6
  -5   0  -4 1771.09 143.200   7
   5   0   4 1582.38 132.930   4
   5   0   4 1341.28 110.477   2
   5   0   4 1549.76 138.976   7
   5   0   4 1345.66 118.835   1
   5   0   4 1601.33 89.5218   3
   5   0   5 69.4859 55.4533   6
  -5   0  -5 58.9871 61.2696   4
   5   0   5 10.4198 53.5805   1
   5   0   5-27.0552 62.0515   4
   5   0   5 9.83181 28.6260   3
   5   0   5 3.69243 49.1541   2
  -5   0  -5-43.7623 59.1685   7
   5   0   5 72.5728 63.4141   7
  -5   0  -6 321.319 93.2192   4
  -5   0  -6 373.649 78.0097   2
   5   0   6 298.403 79.0720   6
   5   0   6 339.225 75.5166   2
   5   0   6 293.639 38.4458   3
   5   0   6 398.702 85.8507   1
  -5   0  -7 69.6549 77.5564   4
  -5   0  -7 57.3531 55.9179   2
   5   0   7 48.8280 20.2155   3
   5   0   7 89.1725 64.8805   2
   5   0   7 24.9278 63.5037   1
   5   0   8 648.236 106.485   2
  -5   0  -8 761.960 126.589   4
  -5   0  -8 849.554 114.607   2
   5   0   8 637.219 115.820   1
   5   0   9 2113.93 187.015   1
  -5   0  -9 1692.21 182.957   4
   5   0   9 1988.36 172.465   2
   5   0  10 1774.39 186.142   1
  -5   0 -10 1432.54 184.309   4
   5   0  10 1994.85 181.750   2
   5   0  11-39.0175 76.4506   2
  -5   0 -11 109.623 91.3464   4
   5   0  11 95.4221 94.9419   1
   5   0  12 1340.36 170.890   2
  -5   0 -12 1490.32 191.852   4
   5   0  12 1404.49 176.273   1
   5   0  13 1376.41 176.457   2
  -5   0 -13 829.224 169.762   4
  -5   0 -14 887.603 179.845   4
   5   0  14 1311.35 186.250   2
  -5   1  21 436.457 154.226   2
  -5   1  20 252.920 125.308   2
   5   1 -19 549.342 122.858   4
  -5   1  19 864.879 177.782   2
   5   1 -18 816.122 137.693   4
  -5   1  18 724.085 151.028   2
   5   1 -17 197.960 70.2206   4
  -5   1  17 221.179 118.095   2
   5   1 -16 5117.09 271.579   4
  -5   1  16 5217.61 331.305   2
   5   1 -16 4940.08 203.398   3
  -5   1  15 473.060 92.3112   4
   5   1 -15 957.526 123.341   4
   5   1 -15 630.911 85.0511   3
  -5   1  15 929.396 157.073   2
   5   1 -14 1357.83 133.190   4
   5   1 -14 1528.54 113.807   1
  -5   1  14 1228.42 125.523   4
  -5   1  14 1637.86 185.344   2
  -5   1  14 1093.19 125.030   5
   5   1 -14 1449.96 147.397   5
   5   1 -13 1332.34 125.782   4
  -5   1  13 1415.71 170.211   2
   5   1 -13 1409.26 106.946   1
   5   1 -13 1356.39 142.880   5
  -5   1  13 1213.23 112.995   4
   5   1 -13 1439.80 161.213   6
   5   1 -13 1391.52 154.148   2
  -5   1  13 988.056 115.417   5
   5   1 -12 1533.55 125.193   4
   5   1 -12 1527.62 108.172   1
   5   1 -12 1427.89 143.162   2
   5   1 -12 1527.03 154.702   6
  -5   1  12 1346.41 114.221   4
  -5   1  12 1399.29 160.458   2
  -5   1  12 1128.79 122.178   5
   5   1 -12 1356.55 134.511   5
   5   1 -11 2065.10 111.058   1
   5   1 -11 2093.33 132.737   4
  -5   1  11 1872.53 166.637   2
  -5   1  11 1776.45 113.015   4
   5   1 -11 1752.14 154.909   6
  -5   1  11 1931.00 162.954   6
   5   1 -11 1890.91 151.934   5
   5   1 -11 1821.11 152.144   2
  -5   1  11 1901.48 145.366   5
  -5   1  10 3276.73 208.259   2
   5   1 -10 3362.79 157.246   4
  -5   1  10 2990.80 127.234   4
   5   1 -10 3153.44 186.264   6
  -5   1  10 3043.84 177.895   5
  -5   1  10 3175.82 186.573   6
   5   1 -10 3062.23 178.871   2
   5   1 -10 3061.57 178.166   5
  -5   1   9 278.891 66.8853   6
  -5   1   9 329.070 43.1667   4
   5   1  -9 309.970 52.2838   4
   5   1  -9 243.095 63.5103   6
   5   1  -9 335.657 75.7655   2
  -5   1   9 293.489 83.6162   2
  -5   1   9 241.452 64.3781   5
   5   1  -9 335.366 69.1565   5
   5   1  -8 2347.49 143.847   2
  -5   1   8 2140.01 80.4350   4
   5   1  -8 2097.94 110.171   4
  -5   1   8 2231.43 153.793   2
  -5   1   8 2529.74 142.971   6
   5   1  -8 1986.30 136.329   6
  -5   1   8 2274.53 145.587   5
   5   1  -8 2149.50 145.475   5
  -5   1   7 472.097 72.2992   5
   5   1  -7 320.754 49.1803   4
   5   1  -7 344.738 62.7782   6
  -5   1   7 384.286 58.8978   6
  -5   1   7 415.023 81.7010   2
   5   1  -7 438.503 70.7060   2
   5   1  -7 493.106 80.6850   5
  -5   1   6 836.500 68.7992   6
   5   1  -6 806.283 80.4181   6
  -5   1   6 994.578 94.1725   5
  -5   1   6 750.966 89.8291   2
   5   1  -6 707.232 87.5329   5
   5   1  -6 811.828 81.9310   2
  -5   1   5 1705.41 110.436   3
  -5   1   5 1407.81 111.661   2
  -5   1   5 1616.75 76.2878   6
   5   1  -5 1514.85 93.9656   6
  -5   1   5 1477.67 111.993   5
   5   1  -5 1710.69 118.245   5
   5   1  -4 2063.67 105.170   6
  -5   1   4 2233.29 69.1681   6
   5   1  -4 2341.69 85.1054   7
   5   1  -4 2512.03 130.383   5
  -5   1   4 2275.98 130.566   5
  -5   1   4 2285.38 128.552   3
  -5   1   3 2683.59 80.4968   4
  -5   1   3 2797.54 134.467   5
   5   1  -3 2734.36 133.104   5
   5   1  -3 2581.32 102.032   7
  -5   1   3 2776.02 136.013   3
  -5   1   2 2764.37 99.4710   4
  -5   1   2 2799.78 132.669   5
   5   1  -2 2583.92 124.556   5
   5   1  -2 2740.29 117.666   7
  -5   1   2 2893.45 139.627   3
  -5   1   1 2052.84 101.305   4
   5   1  -1 2145.15 114.433   7
   5   1  -1 2119.35 106.258   5
  -5   1   1 2022.60 117.039   3
   5   1   0 1398.49 101.542   4
  -5   1   0 1484.99 96.3797   4
   5   1   0 1429.15 105.208   2
   5   1   0 1607.34 109.181   7
   5   1   0 1531.78 107.375   1
   5   1   0 1584.09 88.2140   5
  -5   1   0 1489.08 99.2927   3
   5   1   1 803.910 85.7244   1
   5   1   1 1038.16 94.3980   4
   5   1   1 905.007 92.9249   7
  -5   1  -1 839.841 85.0381   4
   5   1   1 949.151 65.7874   5
  -5   1  -1 905.519 79.5764   3
   5   1   1 852.511 88.9867   2
  -5   1  -2 385.508 54.9532   3
   5   1   2 316.781 70.1251   4
  -5   1  -2 388.165 68.1787   4
   5   1   2 417.440 77.5478   7
   5   1   2 288.735 65.2316   1
   5   1   2 285.814 67.7688   2
   5   1   2 396.036 40.6331   5
   5   1   3 2218.09 153.773   4
  -5   1  -3 1976.25 141.594   4
   5   1   3 2082.15 143.296   2
   5   1   3 2145.46 154.991   7
   5   1   3 2075.37 144.263   1
  -5   1  -3 2175.51 117.904   3
   5   1   3 1863.08 70.7004   5
  -5   1  -4 328.466 50.6001   3
   5   1   4 309.672 43.8795   3
   5   1   4 539.139 88.2263   4
  -5   1  -4 319.012 73.4225   4
   5   1   4 332.578 76.9863   7
   5   1   4 243.923 73.1543   1
   5   1   4 406.772 77.3505   2
  -5   1  -5 3230.96 200.028   4
   5   1   5 3025.23 194.287   4
   5   1   5 3253.21 207.159   7
   5   1   5 2821.62 184.945   1
   5   1   5 3272.66 191.714   2
   5   1   5 2944.15 107.671   3
  -5   1  -5 3190.93 137.898   3
  -5   1  -6 2143.05 176.127   4
   5   1   6 1846.69 163.896   1
   5   1   6 2099.59 164.378   2
   5   1   6 1700.93 76.0188   3
  -5   1  -6 2067.76 108.061   3
   5   1   7 1245.98 141.493   1
   5   1   7 1582.13 153.619   2
   5   1   7 538.473 30.9750   3
  -5   1  -7 1459.86 160.759   4
   5   1   7 651.966 33.8774   3
   5   1   8 1331.06 158.000   1
  -5   1  -8 1343.28 164.073   4
   5   1   8 1393.31 156.289   2
  -5   1  -9 1097.56 149.781   4
   5   1   9 1602.54 166.829   2
   5   1   9 1173.48 151.968   1
  -5   1 -10 919.877 146.638   4
   5   1  10 684.504 137.362   1
   5   1  10 908.437 143.722   2
   5   1  11 5002.10 313.154   1
  -5   1 -11 3938.15 299.541   4
   5   1  11 4328.32 288.438   2
   5   1  12 90.2249 103.585   2
  -5   1 -12 294.596 113.565   4
  -5   1 -13 563.808 141.421   4
   5   1  13 1115.60 175.827   2
   5   1  14 914.388 179.389   2
  -5   1 -14 566.043 143.614   4
   5   1  15 585.701 161.163   2
  -5   2  20 1816.14 260.068   2
   5   2 -19 947.107 157.101   4
  -5   2  19 913.145 178.980   2
   5   2 -18 2995.43 243.874   4
  -5   2  18 3263.81 302.753   2
   5   2 -17 541.472 111.478   4
  -5   2  17 597.414 164.689   2
   5   2 -16 1784.90 180.101   4
  -5   2  16 1963.49 232.257   2
   5   2 -15 727.421 106.745   3
   5   2 -15 747.326 118.837   4
  -5   2  15 741.212 144.668   2
  -5   2  15 473.713 88.1463   4
   5   2 -15 796.834 149.147   6
  -5   2  14 3009.25 247.740   2
   5   2 -14 3006.74 241.220   6
   5   2 -14 2777.76 194.447   4
  -5   2  14 2321.88 161.732   4
   5   2 -14 2809.43 185.364   3
   5   2 -14 2739.85 197.085   2
  -5   2  13 1091.66 108.466   4
   5   2 -13 1054.05 125.541   2
   5   2 -13 1038.33 122.003   4
  -5   2  13 1202.71 161.305   2
   5   2 -13 1339.54 128.023   3
   5   2 -13 1008.04 149.240   6
   5   2 -13 1038.15 124.061   5
  -5   2  12 7071.31 341.833   2
  -5   2  12 6727.48 230.120   4
   5   2 -12 7114.84 277.997   4
   5   2 -12 7251.20 279.513   3
   5   2 -12 7129.14 328.309   6
   5   2 -12 6955.30 132.672   1
   5   2 -12 7195.76 288.080   2
   5   2 -12 6718.69 291.461   5
  -5   2  11 1310.62 99.8873   4
   5   2 -11 1521.37 128.739   4
   5   2 -11 1385.78 54.2917   1
  -5   2  11 1424.66 145.382   6
   5   2 -11 1405.86 148.146   6
  -5   2  11 1422.07 160.008   2
   5   2 -11 1501.56 140.836   5
   5   2 -11 1444.13 127.404   2
  -5   2  10 67.1630 39.5006   4
  -5   2  10 58.6873 54.9466   6
   5   2 -10 19.4414 52.9862   6
  -5   2  10 40.7609 74.0013   2
   5   2 -10 71.1025 52.5690   2
   5   2 -10 51.2171 15.3607   1
   5   2 -10 102.454 55.9477   4
   5   2 -10 9.54730 56.9648   5
  -5   2   9 2878.21 196.024   2
   5   2  -9 2017.71 59.3333   1
   5   2  -9 2804.17 158.264   2
  -5   2   9 2554.27 109.695   4
   5   2  -9 2527.82 152.326   4
  -5   2   9 2544.81 146.940   3
  -5   2   9 2518.33 161.575   6
   5   2  -9 2482.52 169.168   6
   5   2  -9 2518.92 164.916   5
  -5   2   8 2539.85 179.532   2
  -5   2   8 2346.72 96.0142   4
   5   2  -8 2217.18 136.487   4
   5   2  -8 2437.60 140.649   2
   5   2  -8 2333.40 155.648   6
  -5   2   8 2489.47 145.728   3
   5   2  -8 2363.19 158.453   5
  -5   2   7 354.379 67.7756   3
  -5   2   7 347.967 40.1955   4
   5   2  -7 409.460 69.3710   6
  -5   2   7 400.189 83.1332   2
   5   2  -7 346.697 64.4492   2
   5   2  -7 267.335 66.0123   5
  -5   2   6 4243.92 200.584   2
   5   2  -6 4159.82 182.122   6
   5   2  -6 4436.50 197.408   5
  -5   2   6 4270.90 184.852   3
   5   2  -5 1846.79 81.9695   1
  -5   2   5 1847.90 127.152   2
   5   2  -5 1789.88 117.470   6
   5   2  -5 1905.56 129.370   5
  -5   2   5 1934.17 127.274   3
  -5   2   4 954.017 64.3476   4
  -5   2   4 1142.59 101.220   2
   5   2  -4 1080.74 68.9496   1
  -5   2   4 1117.13 102.534   3
   5   2  -4 1053.90 95.4082   5
  -5   2   3 798.803 87.6969   3
  -5   2   3 806.290 64.7624   4
   5   2  -3 834.745 71.2504   1
  -5   2   3 745.248 76.6052   2
   5   2  -3 824.168 83.9893   5
  -5   2   2 755.093 87.4677   3
  -5   2   2 803.622 68.5703   4
  -5   2   2 683.527 42.7745   6
   5   2  -2 739.068 70.2597   1
   5   2  -2 851.926 83.2733   5
  -5   2   1 984.721 96.9727   3
  -5   2   1 940.064 82.3201   4
   5   2  -1 1039.96 95.5100   2
   5   2  -1 1020.69 89.8504   1
  -5   2   1 1053.64 55.8721   6
   5   2  -1 930.918 95.2944   7
   5   2  -1 1057.53 88.5486   5
  -5   2   0 1672.63 111.080   4
   5   2   0 1881.12 128.556   2
   5   2   0 1914.03 123.432   1
   5   2   0 1966.10 135.178   7
  -5   2   0 1839.61 84.2087   6
  -5   2   0 1797.27 124.924   3
   5   2   0 1909.44 115.500   5
  -5   2  -1 4034.03 182.228   4
  -5   2  -1 4152.49 143.741   6
   5   2   1 4044.27 188.263   2
   5   2   1 3674.37 179.644   1
   5   2   1 4101.00 195.975   7
  -5   2  -1 3786.30 176.691   3
   5   2   1 3810.13 147.675   5
  -5   2  -2 438.920 72.5675   3
   5   2   2 336.602 75.0759   4
  -5   2  -2 379.405 74.2458   4
   5   2   2 303.651 74.6843   7
   5   2   2 275.438 72.6077   2
   5   2   2 414.469 78.4137   1
  -5   2  -2 291.322 53.7425   6
   5   2   3 2455.87 170.967   4
  -5   2  -3 2471.13 162.696   4
   5   2   3 2369.76 162.599   1
   5   2   3 2678.11 170.827   2
   5   2   3 2577.47 175.499   7
  -5   2  -3 2432.46 139.341   6
  -5   2  -3 2400.79 144.644   3
   5   2   4 2948.70 193.585   4
  -5   2  -4 2814.83 183.966   4
   5   2   4 2589.31 183.573   1
   5   2   4 2254.25 165.887   2
  -5   2  -4 2687.93 150.437   3
   5   2   4 2712.95 192.400   7
  -5   2  -5 29.9525 41.4803   3
   5   2   5 177.941 79.2950   1
  -5   2  -5-38.2714 69.1021   4
   5   2   5 90.5871 34.4634   3
   5   2   5-1.33108 68.3239   2
   5   2   6 1539.40 161.829   1
  -5   2  -6 1396.52 149.999   4
   5   2   6 1222.45 77.0371   3
   5   2   6 1351.60 151.325   2
  -5   2  -6 1485.17 115.554   3
  -5   2  -7 7219.65 335.070   4
   5   2   7 7394.21 342.306   1
   5   2   7 7348.95 333.026   2
   5   2   7 5249.05 129.787   3
  -5   2  -7 7565.01 245.094   3
   5   2   7 6183.53 139.113   3
  -5   2  -8 1249.00 154.518   4
   5   2   8 1278.84 166.732   1
   5   2   8 1549.50 172.602   2
  -5   2  -8 1289.09 105.496   3
   5   2   9 2681.70 232.722   1
  -5   2  -9 2671.80 229.149   4
   5   2   9 2618.62 224.435   2
  -5   2  -9 2738.54 141.328   3
  -5   2 -10 692.016 142.193   4
   5   2  10 797.208 145.518   2
  -5   2 -11 1689.92 207.305   4
   5   2  11 1850.09 207.142   2
   5   2  12 428.795 141.040   2
  -5   2 -12 391.468 127.594   4
   5   2  13 3124.35 287.601   2
  -5   2 -13 3201.62 297.251   4
   5   2  14 922.125 182.940   2
  -5   2 -14 553.218 155.928   4
   5   2  15 1615.20 233.866   2
   5   3 -20 1051.60 184.535   4
   5   3 -19 628.485 129.710   4
  -5   3  19 411.306 160.610   2
   5   3 -18 953.668 153.006   4
  -5   3  18 1221.84 198.325   2
   5   3 -17 595.171 135.021   4
   5   3 -17 410.133 125.415   6
  -5   3  17 842.148 171.119   2
  -5   3  16 2552.37 261.068   2
   5   3 -16 2692.66 228.024   4
   5   3 -16 2797.85 266.936   6
   5   3 -15 807.824 130.071   4
   5   3 -15 692.720 140.359   6
  -5   3  15 660.755 144.401   2
  -5   3  14 2343.70 164.188   4
   5   3 -14 3086.03 220.002   4
   5   3 -14 2985.77 247.565   6
   5   3 -14 2968.62 196.020   2
  -5   3  14 3391.26 273.711   2
  -5   3  13 1931.41 144.062   4
   5   3 -13 2110.39 179.292   4
   5   3 -13 1949.68 159.310   2
   5   3 -13 2041.29 177.289   3
  -5   3  13 2062.95 215.698   2
   5   3 -13 2136.81 202.050   6
  -5   3  12 1055.84 105.464   4
   5   3 -12 1224.19 135.367   4
   5   3 -12 1464.59 151.529   3
  -5   3  12 1318.46 172.658   2
   5   3 -12 1578.99 168.669   6
   5   3 -12 1300.51 130.854   2
  -5   3  11 1765.66 124.035   4
   5   3 -11 1590.04 149.213   4
   5   3 -11 1704.34 157.656   3
   5   3 -11 1604.44 165.319   6
  -5   3  11 1589.91 180.284   2
   5   3 -11 1729.02 137.343   2
  -5   3  11 1636.18 129.176   3
   5   3 -10 8046.35 264.447   2
  -5   3  10 8333.07 242.049   4
   5   3 -10 8208.27 309.150   4
   5   3 -10 8775.81 325.027   3
   5   3 -10 8410.48 340.247   6
   5   3 -10 8131.66 318.626   5
  -5   3  10 8019.01 279.639   3
  -5   3  10 8517.99 359.474   2
   5   3  -9 476.351 92.8843   5
  -5   3   9 575.013 84.6321   3
  -5   3   9 531.319 67.4278   4
   5   3  -9 560.223 93.4933   4
   5   3  -9 511.101 95.2404   3
  -5   3   9 743.163 126.674   2
   5   3  -9 515.983 95.0119   6
   5   3  -9 520.528 75.3245   2
   5   3  -8 1124.42 126.528   6
  -5   3   8 1037.64 128.197   2
   5   3  -8 1166.98 114.954   4
   5   3  -8 1149.03 99.7980   2
  -5   3   8 1126.64 110.335   3
   5   3  -8 1370.03 131.009   5
   5   3  -7 747.001 100.176   5
  -5   3   7 612.711 86.4951   3
   5   3  -7 680.072 96.5984   6
  -5   3   7 635.865 103.670   2
   5   3  -6 960.974 107.858   5
   5   3  -6 834.709 52.3191   1
  -5   3   6 815.946 99.4106   3
  -5   3   6 803.270 103.365   2
   5   3  -6 836.501 102.796   6
  -5   3   5 1429.69 121.933   2
   5   3  -5 1629.68 86.1319   1
  -5   3   5 1354.45 120.920   3
   5   3  -5 1480.84 124.310   5
   5   3  -4 5954.03 177.200   1
  -5   3   4 5565.27 220.072   2
  -5   3   4 6287.77 248.536   3
   5   3  -4 6051.97 240.559   5
   5   3  -3 1488.04 101.802   1
   5   3  -3 1425.82 109.444   2
  -5   3   3 1448.05 100.887   4
  -5   3   3 1427.87 107.348   2
  -5   3   3 1691.00 136.048   3
   5   3  -3 1434.17 120.086   5
  -5   3   2 1194.46 100.428   4
   5   3  -2 1481.59 108.399   1
   5   3  -2 1378.78 112.227   2
  -5   3   2 1390.14 123.226   3
  -5   3   2 1486.17 100.886   2
   5   3  -2 1480.00 117.804   5
  -5   3   1 5785.31 213.709   4
   5   3  -1 5669.14 216.139   1
   5   3  -1 5617.95 221.689   2
  -5   3   1 5707.59 167.686   6
  -5   3   1 5879.90 243.208   3
  -5   3   0 1606.98 125.824   4
   5   3   0 1843.97 134.638   1
   5   3   0 1654.18 130.224   2
  -5   3   0 1557.49 94.6223   6
  -5   3   0 1372.19 123.358   3
   5   3   1 1097.63 114.467   1
  -5   3  -1 958.085 107.354   4
   5   3   1 916.139 97.4007   3
   5   3   1 1084.50 113.854   2
  -5   3  -1 786.080 76.3637   6
  -5   3  -1 1051.99 113.531   3
   5   3   2 677.262 97.9855   1
  -5   3  -2 529.730 85.2173   4
   5   3   2 670.850 111.876   7
   5   3   2 560.937 77.1740   3
  -5   3  -2 538.141 70.4437   6
  -5   3  -2 713.588 100.276   3
   5   3   2 660.851 101.409   2
  -5   3  -3 1029.80 121.718   4
   5   3   3 1075.99 135.031   7
   5   3   3 743.713 107.354   2
   5   3   3 916.784 95.6057   3
  -5   3  -3 1124.35 105.904   6
  -5   3  -3 1039.47 112.860   3
   5   3   3 986.808 121.499   1
  -5   3  -4 633.425 107.912   4
   5   3   4 678.316 81.2349   3
  -5   3  -4 617.334 88.4567   6
   5   3   4 571.203 108.254   2
   5   3   4 601.210 107.951   1
  -5   3  -4 610.119 86.5420   3
   5   3   5 8810.64 364.026   1
   5   3   5 8443.00 243.922   3
  -5   3  -5 9112.45 360.698   4
   5   3   5 8459.86 348.294   2
  -5   3  -5 8294.18 307.912   6
  -5   3  -5 8596.29 303.278   3
  -5   3  -6 1961.27 184.017   4
   5   3   6 1622.01 170.063   2
  -5   3  -6 2005.58 149.781   3
   5   3   6 1781.65 112.673   3
  -5   3  -6 1862.14 165.650   6
   5   3   6 1862.74 189.541   1
  -5   3  -7 1169.00 154.937   4
   5   3   7 1265.26 88.5548   3
  -5   3  -7 1155.13 138.650   6
   5   3   7 1159.93 171.822   1
   5   3   7 1345.88 159.537   2
  -5   3  -7 1195.09 122.695   3
   5   3   8 1563.03 81.8628   3
  -5   3  -8 2174.97 211.720   4
  -5   3  -8 2140.57 159.561   3
   5   3   8 1725.22 192.773   2
  -5   3  -9 3183.61 258.603   4
   5   3   9 3258.29 258.750   2
  -5   3  -9 3181.38 186.960   3
  -5   3 -10 824.464 150.685   4
   5   3  10 1182.02 173.547   2
  -5   3 -11 3202.83 279.306   4
   5   3  11 2869.67 266.858   2
   5   3  12 480.226 127.599   2
  -5   3 -12 398.111 128.686   4
   5   3  13 1039.02 200.230   2
  -5   3 -13 769.609 174.886   4
   5   3  14 437.490 158.453   2
   5   4 -19 42.3700 98.7643   4
   5   4 -18 869.504 160.585   4
  -5   4  18 836.747 187.715   2
   5   4 -17 887.954 155.221   4
  -5   4  17 1356.94 223.541   2
   5   4 -17 1054.55 198.909   6
  -5   4  16 787.853 161.212   2
   5   4 -16 515.348 124.273   4
   5   4 -16 670.044 148.175   6
   5   4 -15 1903.29 199.608   4
   5   4 -15 1791.06 218.460   6
  -5   4  15 1715.67 223.381   2
   5   4 -14 4230.19 273.564   4
   5   4 -14 4650.24 321.284   6
  -5   4  14 4911.65 340.798   2
   5   4 -13 746.093 129.536   4
  -5   4  13 474.557 84.4954   3
   5   4 -13 503.736 76.7442   2
  -5   4  13 591.012 100.356   4
  -5   4  13 492.405 134.901   2
   5   4 -13 740.118 140.309   6
  -5   4  12 5222.86 237.521   4
   5   4 -12 5343.64 291.748   4
   5   4 -12 5856.09 327.561   6
   5   4 -12 5125.08 221.663   2
  -5   4  12 5290.16 331.344   2
  -5   4  12 5301.93 249.274   3
  -5   4  11 174.210 57.4392   3
   5   4 -11 318.150 95.6047   4
  -5   4  11 149.023 64.4868   4
  -5   4  11 392.034 110.404   2
   5   4 -11 203.698 64.4227   2
   5   4 -11 318.352 96.2627   6
  -5   4  10 1211.74 114.582   4
  -5   4  10 1031.41 124.701   3
   5   4 -10 1271.82 146.131   4
  -5   4  10 984.418 153.670   2
   5   4 -10 1083.72 142.611   6
   5   4 -10 1014.82 105.476   2
  -5   4   9 684.635 103.417   3
   5   4  -9 614.570 107.829   6
   5   4  -9 732.415 113.788   4
  -5   4   9 542.369 113.735   2
   5   4  -9 708.216 86.5121   2
   5   4  -8 4240.00 243.902   6
  -5   4   8 3853.39 218.730   3
  -5   4   8 3779.00 242.349   2
  -5   4   7 1436.63 153.420   2
   5   4  -7 1368.77 137.721   6
  -5   4   7 1351.79 142.205   3
  -5   4   6 1307.19 136.156   2
   5   4  -6 1401.94 139.551   6
   5   4  -6 1356.44 136.866   3
  -5   4   6 1269.31 133.768   3
  -5   4   5 2464.55 170.532   2
   5   4  -5 2567.13 145.579   2
   5   4  -5 2610.22 185.747   3
  -5   4   5 2703.51 187.535   3
   5   4  -4 850.606 114.406   3
  -5   4   4 826.333 99.7270   2
   5   4  -4 950.935 97.1089   2
  -5   4   4 779.455 105.010   3
  -5   4   3 1643.72 127.147   2
   5   4  -3 1909.28 138.740   2
   5   4  -3 1891.66 156.410   3
  -5   4   3 1804.97 152.878   3
  -5   4   2 1859.54 137.148   4
   5   4  -2 1734.29 133.101   2
  -5   4   2 1756.06 114.820   2
   5   4  -2 1827.31 155.018   3
  -5   4   2 1649.34 147.907   3
  -5   4   1 926.424 117.963   3
  -5   4   1 820.025 103.443   4
   5   4  -1 932.097 114.188   3
  -5   4   1 896.832 87.7989   6
   5   4  -1 914.424 108.775   2
  -5   4   1 802.008 75.8374   2
  -5   4   0 2637.87 173.120   4
   5   4   0 2266.41 162.466   2
  -5   4   0 2573.43 143.452   6
   5   4   0 2514.26 171.108   3
  -5   4   0 2669.20 190.763   3
  -5   4  -1 1670.68 148.703   4
   5   4   1 1623.96 149.662   2
  -5   4  -1 1432.73 112.915   6
  -5   4  -1 1647.63 149.446   3
   5   4   1 1801.56 149.275   3
  -5   4  -2 1570.56 147.736   4
   5   4   2 1536.49 134.741   3
   5   4   2 1452.84 147.216   2
  -5   4  -2 1444.29 119.889   6
  -5   4  -2 1469.84 146.324   3
  -5   4  -3 4333.12 245.396   4
   5   4   3 4494.11 217.667   3
   5   4   3 4045.55 244.723   2
  -5   4  -3 4432.35 213.841   6
  -5   4  -3 4509.96 243.767   3
  -5   4  -4 694.561 97.7118   6
   5   4   4 730.132 100.434   3
   5   4   4 803.526 126.807   2
  -5   4  -4 573.097 108.432   4
  -5   4  -4 799.083 122.896   3
  -5   4  -5 1125.53 146.927   4
  -5   4  -5 935.665 118.967   6
   5   4   5 1263.23 164.417   2
   5   4   5 1214.72 119.951   3
  -5   4  -5 1164.16 134.935   3
  -5   4  -6 141.710 83.6232   4
  -5   4  -6 334.079 87.9293   6
   5   4   6 211.158 61.9668   3
   5   4   6 447.838 116.968   2
  -5   4  -7 5910.09 335.545   4
   5   4   7 5924.23 338.374   2
  -5   4  -7 5672.10 299.493   6
   5   4   7 5844.37 220.746   3
  -5   4  -8 558.450 129.386   4
  -5   4  -8 641.659 131.375   6
   5   4   8 829.931 157.471   2
  -5   4  -9 4250.16 313.254   4
  -5   4  -9 4370.19 291.514   6
   5   4   9 4394.12 316.498   2
  -5   4 -10 1516.04 199.641   4
   5   4  10 1959.70 235.742   2
  -5   4 -11 598.458 152.182   4
   5   4  11 855.795 175.531   2
   5   4  12 1239.59 202.499   2
  -5   4 -12 973.017 196.030   4
   5   4  13 905.775 207.453   2
   5   5 -18 660.965 155.896   4
   5   5 -17 164.696 98.6349   4
   5   5 -16 1321.25 207.109   6
   5   5 -16 1356.70 188.173   4
  -5   5  16 1203.00 212.740   2
  -5   5  15 937.791 179.763   2
   5   5 -15 1057.28 181.918   6
   5   5 -15 958.491 156.001   4
   5   5 -14 495.450 126.104   4
   5   5 -14 597.432 139.340   6
  -5   5  14 539.880 143.791   2
  -5   5  13 931.055 164.035   2
   5   5 -13 1623.85 199.628   6
   5   5 -13 1155.79 161.516   4
  -5   5  12 3732.09 225.230   4
   5   5 -12 4146.20 283.547   4
   5   5 -12 4267.40 297.255   6
  -5   5  12 4527.61 328.951   2
  -5   5  11 483.165 126.213   2
  -5   5  11 535.001 91.2615   4
   5   5 -11 669.908 87.4136   2
   5   5 -11 565.323 115.643   4
   5   5 -11 615.005 122.111   6
   5   5 -10 4765.58 197.679   2
   5   5 -10 4684.50 285.518   4
   5   5 -10 4685.35 293.188   6
  -5   5  10 4547.65 299.565   2
  -5   5   9 1246.97 163.366   2
   5   5  -9 1456.27 114.066   2
   5   5  -9 1407.85 164.491   4
   5   5  -9 1839.36 186.329   6
   5   5  -8 292.596 64.8904   2
  -5   5   8 272.196 107.729   2
   5   5  -8 264.294 92.7512   6
   5   5  -7 1296.49 115.516   2
  -5   5   7 1430.21 162.439   2
   5   5  -7 1318.93 155.229   6
  -5   5   6 519.928 104.578   2
   5   5  -6 582.772 83.7727   2
   5   5  -6 651.636 111.572   6
  -5   5   5 467.331 102.897   2
   5   5  -5 423.768 77.3307   2
  -5   5   4 2861.04 184.799   2
   5   5  -4 2486.53 168.168   2
  -5   5   3 1684.19 140.380   2
   5   5  -3 1625.68 138.827   2
  -5   5   2 1572.21 148.632   4
  -5   5   2 1412.89 118.854   2
   5   5  -2 1483.33 139.240   2
  -5   5   1 2706.76 189.167   4
   5   5  -1 2596.68 182.350   2
  -5   5   1 2390.02 137.099   2
  -5   5   0 396.713 94.5763   4
   5   5   0 401.110 91.7880   2
  -5   5   0 376.382 77.2311   6
   5   5   1 606.295 108.954   2
  -5   5  -1 720.428 95.0669   6
  -5   5  -1 486.133 110.084   4
   5   5   2 1153.86 146.365   2
  -5   5  -2 1463.46 158.239   4
  -5   5  -2 1465.01 134.846   6
   5   5   2 1451.44 158.155   3
   5   5   3 363.964 94.0013   3
  -5   5  -3 349.569 87.2618   6
   5   5   3 238.535 93.6429   2
  -5   5  -3 423.687 109.152   4
  -5   5  -4 1510.71 166.356   4
   5   5   4 1556.47 150.031   3
  -5   5  -4 1705.05 156.216   6
   5   5   4 1781.02 189.212   2
  -5   5  -5 4996.77 303.926   4
   5   5   5 4306.03 236.561   3
  -5   5  -5 4986.72 266.987   6
   5   5   5 4285.07 288.434   2
  -5   5  -6 623.536 125.655   4
  -5   5  -6 707.127 118.068   6
   5   5   6 403.621 78.5166   3
   5   5   6 608.690 133.567   2
  -5   5  -7 4622.94 312.388   4
   5   5   7 4094.58 303.569   2
  -5   5  -7 4252.94 273.231   6
  -5   5  -8 1258.58 186.704   4
  -5   5  -8 1136.03 164.144   6
   5   5   8 1168.42 178.842   2
  -5   5  -9 222.954 112.177   4
  -5   5  -9 558.610 138.821   6
   5   5   9 483.782 153.591   2
  -5   5 -10 1047.62 178.901   4
  -5   5 -10 710.356 165.240   6
   5   5  10 1184.56 202.922   2
  -5   5 -11 1309.54 202.346   4
   5   5  11 1464.66 229.776   2
   5   6 -16 111.439 125.155   4
  -5   6  15 458.473 148.203   2
   5   6 -15 389.119 139.755   4
   5   6 -15 173.092 105.071   6
   5   6 -14 910.235 162.174   4
  -5   6  14 1092.77 205.147   2
   5   6 -14 1057.41 179.237   6
   5   6 -13 287.592 117.305   4
  -5   6  13 490.959 144.694   2
   5   6 -13 395.964 129.755   6
  -5   6  12 1002.41 192.075   2
   5   6 -12 957.260 163.350   6
   5   6 -12 968.329 155.448   4
   5   6 -11 230.322 101.550   4
   5   6 -11 440.121 121.403   6
  -5   6  11 290.685 118.774   2
  -5   6  10 942.248 157.286   2
   5   6 -10 882.378 86.6308   2
   5   6 -10 1045.93 164.000   4
   5   6 -10 906.913 153.359   6
   5   6  -9 164.707 53.3902   2
   5   6  -9 243.135 97.8749   4
  -5   6   9 190.643 108.433   2
   5   6  -9 330.405 110.281   6
   5   6  -8 646.965 127.166   6
   5   6  -8 561.023 85.7654   2
  -5   6   8 670.214 130.431   2
   5   6  -7 424.553 80.0127   2
   5   6  -7 607.260 118.032   6
  -5   6   7 409.652 108.408   2
  -5   6   6 452.067 100.487   2
   5   6  -6 509.956 92.7504   2
   5   6  -6 631.184 127.595   6
   5   6  -5 53.3955 57.8885   2
  -5   6   5 23.2916 75.8527   2
   5   6  -4 1398.80 136.863   2
  -5   6   4 1494.17 150.093   2
   5   6  -3 179.956 85.2384   2
  -5   6   3 166.794 72.1994   2
  -5   6   2 162.283 68.6063   2
   5   6  -2 237.242 88.9967   2
  -5   6   2 156.985 74.1268   4
  -5   6   1 1435.24 115.672   2
  -5   6   1 1542.84 164.193   4
   5   6  -1 1387.12 158.676   2
  -5   6   0 178.672 89.6051   4
   5   6   0 184.702 91.4430   2
  -5   6   0 142.661 69.4916   6
  -5   6   0 61.9066 44.7536   2
  -5   6  -1 583.266 100.666   6
   5   6   1 444.981 98.4876   2
  -5   6  -1 536.073 126.149   4
  -5   6  -2 537.304 102.766   6
   5   6   2 518.147 114.861   2
  -5   6  -2 296.812 103.365   4
  -5   6  -3 496.350 118.192   4
  -5   6  -3 483.708 97.4691   6
   5   6   3 426.411 110.755   2
  -5   6  -4 179.376 91.0109   4
  -5   6  -4 345.948 96.5259   6
   5   6   4 177.825 109.521   2
  -5   6  -5 946.464 151.913   4
   5   6   5 1097.13 171.927   2
  -5   6  -5 1046.73 141.821   6
  -5   6  -6 468.569 127.941   4
  -5   6  -6 439.084 114.725   6
   5   6   6 448.392 141.851   2
  -5   6  -7 803.079 158.592   4
  -5   6  -7 658.579 134.472   6
   5   6   7 889.956 171.408   2
  -5   6  -8 282.178 123.212   4
  -5   6  -8 431.941 120.706   6
   5   6   8 567.850 165.817   2
  -5   6  -9 1140.50 200.706   4
  -5   6  -9 986.267 177.774   6
   5   6   9 1197.86 206.186   2
  -5   6 -10 303.614 133.076   4
  -5   6 -10 397.465 129.646   6
   5   6  10 544.670 183.857   2
  -5   6 -11 23.2652 102.642   6
   5   7 -14 582.085 150.435   4
  -5   7  13 502.686 143.280   2
   5   7 -13 423.348 123.616   4
   5   7 -13 846.034 166.282   6
   5   7 -12 542.695 145.766   4
   5   7 -12 330.519 113.014   6
  -5   7  12 399.482 138.094   2
   5   7 -11 396.255 129.644   6
   5   7 -11 215.478 92.3069   4
  -5   7  11 489.564 149.993   2
   5   7 -10 864.503 165.126   4
  -5   7  10 761.472 160.941   2
   5   7 -10 833.286 162.650   6
   5   7  -9 1432.39 191.989   6
   5   7  -9 1240.22 187.192   4
  -5   7   9 909.769 164.102   2
   5   7  -8 1426.01 127.025   2
  -5   7   8 1306.69 177.796   2
   5   7  -8 1799.13 210.641   6
  -5   7   7-33.1872 107.072   2
   5   7  -7 56.5513 57.9595   2
   5   7  -7 193.447 96.2632   6
  -5   7   6 201.705 96.5227   2
   5   7  -6 67.1225 67.2872   2
   5   7  -6 166.908 93.8713   6
  -5   7   5-112.066 76.1421   2
   5   7  -5 69.9097 63.4243   2
  -5   7   4 253.705 89.4336   2
   5   7  -4 227.261 91.8386   2
  -5   7   3 109.148 69.0306   2
   5   7  -3 266.697 95.9739   2
  -5   7   2 357.248 103.030   4
   5   7  -2 135.128 78.2653   2
  -5   7   2 240.123 79.4402   2
  -5   7   1 304.633 104.459   4
  -5   7   1 63.5661 69.9770   6
   5   7  -1 124.373 84.1185   2
  -5   7   1 201.509 70.9991   2
  -5   7   0 15.1077 85.2905   4
  -5   7   0 184.128 79.4239   6
   5   7   0 36.0222 80.6776   2
  -5   7   0 24.1647 46.7218   2
  -5   7  -1 191.431 80.4091   6
   5   7   1 280.947 118.298   2
  -5   7  -1 133.819 95.1763   4
  -5   7  -2 221.249 108.342   4
  -5   7  -2 344.949 107.585   6
   5   7   2 153.922 97.8217   2
  -5   7  -3 1198.71 184.004   4
  -5   7  -3 1391.21 161.602   6
   5   7   3 1242.52 181.457   2
  -5   7  -4 820.134 151.651   4
  -5   7  -4 986.824 146.995   6
   5   7   4 1131.22 179.977   2
  -5   7  -5 786.871 159.147   4
  -5   7  -5 945.634 158.147   6
   5   7   5 899.430 177.201   2
  -5   7  -6 411.781 138.773   4
  -5   7  -6 346.985 108.761   6
   5   7   6 405.607 141.391   2
  -5   7  -7 211.230 113.568   6
  -5   7  -7 163.538 106.790   4
   5   7   7 236.504 130.616   2
  -5   7  -8 1169.24 192.614   6
  -5   7  -8 811.633 184.019   4
   5   7   8 678.462 167.424   2
  -5   7  -9 560.457 157.937   6
  -5   7 -10 70.8764 99.2513   6
  -5   8  12 593.716 188.981   2
   5   8 -11 404.192 134.442   4
  -5   8  11 433.663 172.121   2
   5   8 -10 215.176 125.623   4
  -5   8  10-108.116 129.004   2
   5   8 -10 28.1992 94.3580   6
   5   8  -9 1001.68 173.418   6
   5   8  -9 1143.98 194.445   4
  -5   8   9 771.055 178.076   2
   5   8  -8 1634.39 220.478   6
  -5   8   8 1436.15 197.907   2
  -5   8   7 628.941 136.323   2
   5   8  -7 421.125 132.622   6
   5   8  -6 1554.70 208.016   6
  -5   8   6 1292.15 176.126   2
   5   8  -6 1275.85 137.036   2
  -5   8   5 124.740 80.0312   2
   5   8  -5 320.824 78.7058   2
   5   8  -4 624.099 122.994   2
  -5   8   4 612.993 115.097   2
  -5   8   3 172.974 84.8670   2
   5   8  -3 148.394 73.1883   2
  -5   8   2 163.015 100.910   4
  -5   8   2 114.910 76.5015   2
   5   8  -2 82.6083 76.7088   2
  -5   8   1 718.364 134.270   6
  -5   8   1 907.413 162.225   4
   5   8  -1 672.765 131.439   2
  -5   8   0 294.977 105.644   6
   5   8   0 368.473 116.618   2
  -5   8   0 701.616 155.606   4
  -5   8  -1 1451.14 198.374   4
   5   8   1 1183.33 174.722   2
  -5   8  -1 1370.55 171.701   6
  -5   8  -2 519.217 139.009   4
  -5   8  -2 339.145 100.435   6
   5   8   2 208.032 108.087   2
  -5   8  -3 1738.31 196.553   6
  -5   8  -3 2041.31 240.351   4
   5   8   3 1613.26 219.062   2
  -5   8  -4 735.737 157.608   4
  -5   8  -4 857.361 163.350   6
   5   8   4 715.799 167.868   2
  -5   8  -5 109.566 96.1299   4
   5   8   5-14.0738 105.169   2
  -5   8  -6 211.694 108.381   4
   5   8   6 504.774 134.367   2
  -5   8  -7 406.211 130.142   6
  -5   8  -8 492.253 147.457   6
  -5   8  -9 771.681 162.467   6
  -5   9  10 701.625 175.225   2
  -5   9   9 483.360 155.742   2
  -5   9   8 608.491 162.338   2
  -5   9   7 143.878 119.839   2
   5   9  -6 689.084 168.906   6
  -5   9   6 757.076 160.042   2
  -5   9   5 523.479 137.662   2
   5   9  -5 401.428 152.391   6
  -5   9   3 521.224 174.400   4
   5   9  -3 541.478 126.458   2
  -5   9   2 452.457 152.713   4
  -5   9   2 596.191 150.960   6
   5   9  -2 691.037 133.339   2
  -5   9   1-70.7788 104.897   6
  -5   9   1 66.5174 120.045   4
   5   9  -1 263.916 110.642   2
  -5   9   0 328.388 124.455   6
   5   9   0 530.578 153.291   2
  -5   9  -1 966.067 179.700   4
  -5   9  -1 1025.24 178.584   6
   5   9   1 952.966 172.813   2
  -5   9  -2 392.202 128.531   4
  -5   9  -2 233.387 128.239   6
   5   9   2 366.729 142.783   2
  -5   9  -3 292.187 131.460   6
   5   9   3 650.995 155.237   2
  -5   9  -4 443.816 135.879   6
   5   9   4 410.385 136.649   2
  -5   9  -5 566.893 137.720   6
  -5   9  -6 544.340 139.344   6
  -5  10   2 361.303 138.908   6
  -5  10   1 579.727 142.719   6
  -5  10   0 146.825 105.832   6
   5  10   1 112.473 119.793   2
   6  -9 -11 329.768 123.036   3
   6  -9 -10 1743.30 236.147   3
   6  -9  -9 212.219 121.349   3
   6  -9  -8 2742.15 289.253   3
   6  -9  -7 134.350 113.835   3
   6  -9  -6 229.927 157.713   3
  -6  -9   5 1101.44 214.113   7
   6  -9  -5 778.232 180.735   3
  -6  -9   5 1091.04 207.217   5
   6  -9  -4 4170.33 364.274   3
  -6  -9   4 4339.12 365.180   7
  -6  -9   4 4318.05 360.531   5
  -6  -9   3 1916.12 253.417   7
   6  -9  -3 2034.81 260.920   3
  -6  -9   3 2070.34 271.252   5
  -6  -9   2 4655.52 390.368   7
   6  -9  -2 4086.82 352.722   3
  -6  -9   2 4722.42 380.383   5
  -6  -9   1 905.235 201.399   7
   6  -9  -1 871.466 195.897   3
  -6  -9   1 980.722 191.878   5
  -6  -9   0 122.615 140.111   7
  -6  -9   0 139.826 124.746   5
  -6  -9  -1 255.677 124.794   5
  -6  -9  -2 2679.36 280.698   5
  -6  -9  -3 92.4479 105.299   5
  -6  -9  -4 1907.58 236.410   5
   6  -8 -13 176.879 133.571   7
   6  -8 -12 1208.76 205.038   3
   6  -8 -12 1368.98 228.518   7
   6  -8 -11 127.601 138.344   7
   6  -8 -11 402.101 134.629   3
  -6  -8  11 482.438 157.796   5
   6  -8 -10 681.129 190.193   3
   6  -8 -10 731.323 184.973   7
  -6  -8  10 532.277 148.915   5
   6  -8  -9 487.136 159.533   3
  -6  -8   9 460.485 154.640   5
  -6  -8   8 2197.49 251.467   5
   6  -8  -8 2203.55 250.347   3
   6  -8  -7 182.037 120.590   3
  -6  -8   7 341.626 123.938   5
  -6  -8   6 7256.70 438.923   5
   6  -8  -6 7768.01 446.857   3
   6  -8  -5 1489.85 205.763   3
  -6  -8   5 1469.13 215.041   5
  -6  -8   4 3585.64 307.893   7
  -6  -8   4 3356.30 297.387   5
   6  -8  -4 3987.92 331.910   3
  -6  -8   3 1885.60 228.495   7
   6  -8  -3 2247.62 251.452   3
  -6  -8   3 1873.54 228.350   5
  -6  -8   2 3214.58 293.557   7
   6  -8  -2 3021.98 289.520   3
  -6  -8   2 3155.32 289.194   5
  -6  -8   1 1171.25 196.729   7
   6  -8  -1 1494.80 207.348   3
  -6  -8   1 1309.46 192.118   5
  -6  -8   0 6406.75 418.565   7
   6  -8   0 7413.03 445.449   3
  -6  -8   0 7217.01 419.247   5
  -6  -8  -1 412.809 146.080   7
   6  -8   1 290.168 144.636   3
  -6  -8  -1 470.306 146.871   5
  -6  -8  -2 1854.39 246.488   7
   6  -8   2 1632.94 225.248   3
  -6  -8  -2 2236.81 246.648   5
  -6  -8  -3 808.812 181.735   7
   6  -8   3 638.368 164.056   3
  -6  -8  -3 717.510 172.939   5
   6  -8   4 875.884 179.268   3
  -6  -8  -4 523.570 180.682   7
  -6  -8  -4 506.023 149.371   5
   6  -8   5 394.132 144.376   5
   6  -8   5 267.805 126.260   3
  -6  -8  -5 114.959 95.4116   5
   6  -8   6 1252.18 208.651   5
   6  -8   6 1327.76 212.301   3
   6  -8   7 54.8756 97.2540   5
   6  -8   7 321.552 129.279   3
   6  -8   8 810.984 198.409   5
   6  -7 -16 1316.11 212.345   7
   6  -7 -15 420.493 146.963   7
  -6  -7  15 593.604 164.428   5
   6  -7 -14 853.939 206.328   7
  -6  -7  14 810.856 172.087   5
   6  -7 -13 663.848 143.095   3
  -6  -7  13 494.477 146.051   5
   6  -7 -12 1464.69 188.287   3
   6  -7 -12 2147.01 276.626   7
  -6  -7  12 1673.00 220.426   5
   6  -7 -11 117.758 134.387   7
   6  -7 -11 274.115 120.189   3
  -6  -7  11 335.078 138.900   5
  -6  -7  10 2463.00 262.493   5
   6  -7 -10 2265.40 230.686   3
   6  -7  -9 1136.50 176.493   3
  -6  -7   9 1186.72 187.956   5
   6  -7  -8 7525.83 405.971   3
  -6  -7   8 7896.47 434.405   5
   6  -7  -7 702.137 141.571   3
  -6  -7   7 773.777 157.801   5
   6  -7  -6 122.073 95.9468   3
  -6  -7   6 203.502 100.450   5
   6  -7  -5 124.998 95.9780   3
  -6  -7   5 32.2540 99.7115   5
  -6  -7   5-15.8709 74.8639   1
  -6  -7   4 3356.92 271.146   7
   6  -7  -4 3661.77 287.736   3
  -6  -7   4 3222.19 273.419   5
  -6  -7   3 645.281 133.813   7
   6  -7  -3 691.820 142.444   3
  -6  -7   3 443.037 113.104   5
  -6  -7   2 3237.19 271.674   7
   6  -7  -2 3140.91 270.615   3
  -6  -7   2 3636.58 280.245   5
   6  -7  -1 172.968 108.963   3
  -6  -7   1 48.5336 95.9076   7
  -6  -7   1 47.0933 79.3959   5
   6  -7   0 214.683 93.7679   3
  -6  -7   0 161.141 106.885   7
  -6  -7   0 150.047 99.7358   5
  -6  -7  -1 843.256 161.598   7
   6  -7   1 822.513 154.136   3
  -6  -7  -1 781.908 143.739   5
  -6  -7  -2 7969.19 441.164   7
   6  -7   2 8811.01 450.983   3
  -6  -7  -2 8066.69 395.459   5
  -6  -7  -3 1425.92 210.900   7
   6  -7   3 1316.43 187.607   3
  -6  -7  -3 1287.97 171.007   5
   6  -7   4 2410.60 247.132   3
  -6  -7  -4 2700.21 278.456   7
  -6  -7  -4 2477.29 224.936   5
  -6  -7  -5 321.848 141.734   7
   6  -7   5 298.819 121.362   3
  -6  -7  -5 306.979 101.622   5
   6  -7   6 1689.99 211.983   5
   6  -7   6 1732.48 220.104   3
  -6  -7  -6 1630.68 235.841   7
  -6  -7  -6 1669.25 181.767   5
   6  -7   7 464.963 125.341   5
  -6  -7  -7 351.214 148.145   7
   6  -7   7 578.978 140.147   3
   6  -7   8 1276.05 186.602   5
   6  -7   8 1035.19 189.611   3
   6  -7   9 626.197 157.585   3
   6  -6 -17 509.260 144.930   7
  -6  -6  17 396.018 133.987   5
   6  -6 -16 100.308 119.896   7
  -6  -6  16 346.369 127.645   5
   6  -6 -15 783.585 185.206   7
  -6  -6  15 750.059 162.621   5
   6  -6 -14 976.938 186.636   7
  -6  -6  14 1206.68 193.040   5
   6  -6 -14 957.998 142.863   3
   6  -6 -13 520.255 141.286   7
   6  -6 -13 440.205 110.328   3
  -6  -6  13 438.859 123.073   5
   6  -6 -12 3074.18 273.385   7
   6  -6 -12 2972.89 234.541   3
  -6  -6  12 3364.80 288.634   5
   6  -6 -11 396.518 120.576   3
   6  -6 -11 355.055 124.083   7
  -6  -6  11 326.156 127.246   5
  -6  -6  10 2569.57 246.863   5
   6  -6 -10 2946.64 237.840   3
   6  -6  -9 444.440 108.004   3
  -6  -6   9 427.225 122.021   5
   6  -6  -8 1616.22 178.808   3
  -6  -6   8 1706.56 197.667   5
   6  -6  -7 2085.10 201.212   3
  -6  -6   7 1773.88 203.475   5
   6  -6  -6 8261.22 386.967   3
  -6  -6   6 7835.59 384.521   5
  -6  -6   5 440.098 78.3255   1
   6  -6  -5 344.366 102.837   3
  -6  -6   5 446.127 110.196   5
  -6  -6   4 626.020 98.1926   1
  -6  -6   4 743.035 134.559   7
   6  -6  -4 759.918 122.725   2
   6  -6  -4 853.729 137.552   3
  -6  -6   4 827.504 137.977   5
   6  -6  -3 319.009 107.145   3
   6  -6  -3 112.392 73.4558   2
  -6  -6   3 86.6867 88.9452   7
  -6  -6   3 130.495 64.0317   1
  -6  -6   3 197.499 100.389   5
  -6  -6   2 1293.19 174.278   7
   6  -6  -2 974.377 149.988   3
   6  -6  -2 952.676 108.544   2
  -6  -6   2 868.885 132.523   5
  -6  -6   1 711.882 139.769   7
   6  -6  -1 413.646 66.8937   2
   6  -6  -1 495.196 122.349   3
  -6  -6   1 489.879 108.884   5
   6  -6   0 8406.42 397.813   3
   6  -6   0 7977.80 230.901   2
  -6  -6   0 7929.55 392.490   7
  -6  -6   0 7515.67 355.910   5
   6  -6   1 1907.90 95.2508   2
   6  -6   1 2032.14 205.767   3
  -6  -6  -1 1720.21 203.162   7
  -6  -6  -1 1621.15 170.863   5
  -6  -6  -2 1389.19 184.885   7
   6  -6   2 1658.22 199.688   3
  -6  -6  -2 1646.19 172.352   5
  -6  -6  -3 469.340 101.250   7
   6  -6   3 443.994 118.476   3
  -6  -6  -3 524.647 106.917   5
  -6  -6  -4 2871.70 264.870   7
   6  -6   4 3074.43 252.512   3
  -6  -6  -4 2911.95 214.684   5
  -6  -6  -5 524.054 140.389   7
   6  -6   5 365.506 120.035   3
  -6  -6  -5 379.389 85.3711   5
   6  -6   6 3366.90 268.541   3
  -6  -6  -6 2977.95 284.799   7
  -6  -6  -6 3150.13 216.268   5
   6  -6   7 735.759 135.643   5
  -6  -6  -7 321.372 131.596   7
   6  -6   7 412.248 126.919   3
  -6  -6  -7 315.877 87.7675   5
   6  -6   8 803.044 145.172   5
   6  -6   8 951.203 156.918   3
  -6  -6  -8 874.680 184.104   7
  -6  -6  -9 738.309 173.818   7
   6  -6   9 1147.48 176.126   3
  -6  -5  18 19.5677 84.6111   5
   6  -5 -17 827.345 149.510   7
  -6  -5  17 626.641 128.376   5
   6  -5 -16 1590.19 195.340   7
  -6  -5  16 1809.76 206.017   5
   6  -5 -15 433.826 126.119   7
  -6  -5  15 338.623 112.950   5
   6  -5 -14 1802.35 201.037   7
   6  -5 -14 1855.72 172.693   3
  -6  -5  14 1989.72 220.832   5
   6  -5 -13 525.384 100.339   3
   6  -5 -13 716.036 142.046   7
  -6  -5  13 652.308 144.766   5
   6  -5 -12 4086.16 250.821   3
   6  -5 -12 3861.80 271.178   7
  -6  -5  12 3730.46 278.557   5
   6  -5 -11 599.103 109.785   3
   6  -5 -11 650.790 139.219   7
  -6  -5  11 796.683 144.718   5
   6  -5 -10 8810.26 367.690   3
  -6  -5  10 8600.28 398.315   5
   6  -5  -9 1838.87 173.784   3
  -6  -5   9 1505.09 180.037   5
   6  -5  -8 12279.9 433.092   3
  -6  -5   8 11223.0 438.596   5
   6  -5  -7 1437.46 161.449   3
  -6  -5   7 1391.95 164.293   5
   6  -5  -6 226.491 85.4968   3
  -6  -5   6 304.067 105.454   5
   6  -5  -5 678.066 119.956   3
   6  -5  -5 647.682 103.501   2
  -6  -5   5 664.060 117.480   5
  -6  -5   4 10407.1 376.643   7
   6  -5  -4 10314.7 340.927   2
  -6  -5   4 10162.9 304.662   1
   6  -5  -4 10732.2 405.408   3
  -6  -5   4 10802.5 403.045   5
  -6  -5   3 1648.35 165.919   7
   6  -5  -3 1443.80 129.490   2
   6  -5  -3 1873.33 181.278   3
  -6  -5   3 1721.90 139.327   1
  -6  -5   3 1381.23 154.874   5
  -6  -5   2 10774.7 396.326   7
   6  -5  -2 10207.5 295.584   2
  -6  -5   2 9669.59 331.662   1
   6  -5  -2 10350.4 396.638   3
  -6  -5   2 9936.04 383.811   5
  -6  -5   1 672.879 112.745   1
  -6  -5   1 681.593 131.229   7
   6  -5  -1 622.542 120.015   3
   6  -5  -1 594.979 78.1399   2
  -6  -5   1 622.580 109.741   5
   6  -5   0 356.112 101.520   3
  -6  -5   0 45.9970 81.3336   7
   6  -5   0 283.587 59.2027   2
  -6  -5   0 224.039 79.3213   5
   6  -5   1 1384.49 85.1967   2
  -6  -5  -1 1739.27 185.332   7
   6  -5   1 1389.05 165.290   3
  -6  -5  -1 1138.78 137.856   5
   6  -5   2 9751.53 155.639   2
  -6  -5  -2 10531.5 432.846   7
   6  -5   2 10886.6 420.304   3
  -6  -5  -2 10657.2 368.363   5
   6  -5   3 1848.73 186.610   3
  -6  -5  -3 1624.59 188.025   7
  -6  -5  -3 2019.36 165.073   5
   6  -5   4 7925.71 365.268   3
  -6  -5  -4 7320.46 387.622   7
  -6  -5  -4 7279.12 297.315   5
   6  -5   5 438.164 111.285   3
  -6  -5  -5 621.176 131.372   7
  -6  -5  -5 446.880 85.5291   5
   6  -5   6 4014.45 270.147   3
  -6  -5  -6 3496.03 284.037   7
  -6  -5  -6 3706.38 210.990   5
   6  -5   7 500.460 109.934   5
  -6  -5  -7 479.876 121.473   7
   6  -5   7 669.121 132.877   3
  -6  -5  -7 605.111 88.9567   5
   6  -5   8 2239.73 203.734   3
  -6  -5  -8 2399.07 259.274   7
   6  -5   8 1930.72 177.116   5
  -6  -5  -9 524.117 158.018   7
   6  -5   9 640.818 119.735   3
   6  -5   9 412.467 96.9141   5
  -6  -5 -10 2039.28 252.401   7
  -6  -5 -11 789.520 173.267   7
  -6  -4  18 639.677 136.877   5
   6  -4 -17 337.752 103.519   7
  -6  -4  17 356.709 109.505   5
  -6  -4  16 1496.72 186.965   5
   6  -4 -16 1556.24 170.169   7
   6  -4 -15 1013.21 142.316   7
   6  -4 -15 922.022 117.146   3
  -6  -4  15 909.254 152.475   5
   6  -4 -14 935.005 139.748   7
   6  -4 -14 646.311 97.1453   3
  -6  -4  14 825.591 138.651   5
   6  -4 -13 720.736 119.522   7
   6  -4 -13 679.710 105.101   3
  -6  -4  13 508.965 121.320   5
   6  -4 -12 7323.11 311.962   3
  -6  -4  12 7889.68 370.471   5
   6  -4 -12 7271.55 328.190   7
   6  -4 -11 206.563 88.8621   7
   6  -4 -11 283.994 85.4492   3
  -6  -4  11 100.754 71.7227   5
   6  -4 -10 2412.83 191.955   7
   6  -4 -10 2355.59 182.311   3
  -6  -4  10 2011.97 191.311   5
  -6  -4   9 682.623 120.975   5
   6  -4  -9 755.619 112.848   3
   6  -4  -8 5320.41 265.048   3
  -6  -4   8 5407.69 284.199   5
   6  -4  -7 1657.58 154.450   2
   6  -4  -7 1519.02 150.284   3
  -6  -4   7 1479.66 157.178   5
   6  -4  -6 16861.2 462.986   3
  -6  -4   6 15728.3 460.540   5
   6  -4  -6 17004.4 448.937   2
  -6  -4   5 1401.35 146.977   5
   6  -4  -5 1516.22 137.716   2
   6  -4  -5 1271.72 140.791   3
  -6  -4   4 22378.2 481.313   7
   6  -4  -4 22019.7 525.763   3
   6  -4  -4 21535.4 459.718   2
  -6  -4   4 21478.5 518.203   5
   6  -4  -3 197.502 60.0996   2
   6  -4  -3 189.378 71.6500   3
  -6  -4   3 240.092 77.7324   7
  -6  -4   3 180.886 55.8774   1
  -6  -4   3 295.154 70.9139   5
   6  -4  -2 22962.6 544.000   3
  -6  -4   2 22272.0 462.592   1
   6  -4  -2 22114.1 417.649   2
  -6  -4   2 22567.4 511.228   7
  -6  -4   2 21902.9 503.352   5
  -6  -4   1 1593.06 141.925   1
  -6  -4   1 1549.00 150.607   7
   6  -4  -1 1644.04 153.816   3
   6  -4  -1 1584.77 109.556   2
  -6  -4   1 1316.83 136.860   5
  -6  -4   0 16626.0 467.257   7
  -6  -4   0 16478.0 435.909   1
   6  -4   0 16562.9 466.177   3
   6  -4   0 16926.9 309.639   2
  -6  -4   0 15618.0 414.239   5
   6  -4   1 1511.72 151.671   3
  -6  -4  -1 1417.96 146.931   1
  -6  -4  -1 1559.24 161.987   7
   6  -4   1 1717.42 93.6978   2
  -6  -4  -1 1613.26 140.769   5
  -6  -4  -2 5168.57 283.066   7
   6  -4   2 5534.50 276.497   3
   6  -4   2 5352.21 140.175   2
  -6  -4  -2 5075.75 237.216   5
   6  -4   3 636.505 41.8910   2
  -6  -4  -3 738.359 128.070   7
   6  -4   3 980.703 122.201   3
   6  -4   3 771.855 45.7898   2
  -6  -4  -3 713.848 97.2463   5
  -6  -4  -4 2599.93 223.499   7
   6  -4   4 2229.47 183.749   3
  -6  -4  -4 2196.89 148.608   5
   6  -4   5 208.990 78.6082   3
  -6  -4  -5 299.759 103.948   7
  -6  -4  -5 186.472 59.5282   5
   6  -4   6 7706.41 330.365   3
  -6  -4  -6 7248.67 383.496   7
  -6  -4  -6 7753.83 249.180   5
   6  -4   7 750.117 109.535   5
  -6  -4  -7 618.922 139.479   7
   6  -4   7 817.726 122.320   3
  -6  -4  -7 646.207 74.3855   5
   6  -4   8 864.059 109.812   5
   6  -4   8 585.683 102.757   3
  -6  -4  -8 983.833 175.025   7
   6  -4   8 674.729 107.020   1
   6  -4   9 1106.34 132.820   3
   6  -4   9 976.305 124.590   1
  -6  -4  -9 914.796 168.151   7
   6  -4   9 1206.06 123.217   5
   6  -4  10 1564.22 156.990   1
  -6  -4 -10 1254.81 199.748   7
  -6  -4 -11 189.259 119.316   7
  -6  -4 -12 1074.89 199.660   7
  -6  -3  18-32.6088 79.3867   5
   6  -3 -17 374.720 95.3246   7
  -6  -3  17 387.942 109.084   5
   6  -3 -16 1791.34 170.829   7
  -6  -3  16 993.829 150.114   5
   6  -3 -15 220.461 87.9240   7
   6  -3 -15 351.321 73.7950   3
  -6  -3  15 243.629 103.254   5
   6  -3 -14 6532.07 290.919   7
  -6  -3  14 6634.56 330.999   5
   6  -3 -14 6777.71 269.566   3
  -6  -3  13 590.619 72.0667   7
   6  -3 -13 536.897 97.7852   7
   6  -3 -13 505.975 86.7506   3
  -6  -3  13 553.306 115.230   5
   6  -3 -12 1459.07 139.938   7
   6  -3 -12 1331.60 128.219   3
  -6  -3  12 1420.50 100.525   7
  -6  -3  12 1299.34 151.282   5
   6  -3 -11 1549.53 148.981   7
   6  -3 -11 1699.79 142.059   3
  -6  -3  11 1705.10 163.578   5
   6  -3 -10 14280.4 395.528   7
   6  -3 -10 13138.4 423.261   5
   6  -3 -10 14550.5 397.502   3
  -6  -3  10 15110.0 455.658   5
   6  -3  -9 2549.89 172.560   3
   6  -3  -9 2393.09 177.086   5
  -6  -3   9 2710.09 198.540   5
   6  -3  -8 11873.4 390.132   2
   6  -3  -8 11036.0 372.008   5
   6  -3  -8 11421.4 349.464   3
  -6  -3   8 11417.2 376.630   5
   6  -3  -7 1700.92 146.226   5
   6  -3  -7 1800.11 156.388   2
  -6  -3   7 1985.60 159.935   5
   6  -3  -7 1687.53 138.572   3
   6  -3  -6 1829.24 146.409   3
   6  -3  -6 1607.74 142.085   5
   6  -3  -6 1682.99 142.823   2
  -6  -3   6 1746.82 147.801   5
  -6  -3   5 888.913 91.5103   7
   6  -3  -5 912.345 103.559   2
   6  -3  -5 765.704 102.112   3
  -6  -3   5 853.331 110.139   5
   6  -3  -5 960.940 113.563   5
  -6  -3   4 41655.7 566.023   7
   6  -3  -4 41571.1 659.665   3
   6  -3  -4 42959.7 676.194   5
   6  -3  -4 41982.4 595.356   2
  -6  -3   4 41663.0 651.015   5
  -6  -3   3 7931.39 259.883   7
   6  -3  -3 8162.97 291.092   3
  -6  -3   3 7971.34 281.768   5
   6  -3  -3 8275.97 253.003   2
  -6  -3   2 41424.1 605.695   7
   6  -3  -2 40013.4 659.623   3
  -6  -3   2 40481.9 614.990   5
   6  -3  -2 41922.8 523.702   2
  -6  -3   1 953.539 107.377   7
   6  -3  -1 903.151 113.010   3
  -6  -3   1 885.949 98.7247   5
  -6  -3   1 986.298 103.863   1
   6  -3  -1 933.951 82.3656   2
   6  -3   0 1808.63 103.430   2
  -6  -3   0 1578.68 139.061   7
   6  -3   0 1842.80 148.120   3
  -6  -3   0 1921.96 143.525   1
  -6  -3   0 1658.13 128.599   5
   6  -3   1 1534.26 134.415   4
   6  -3   1 1560.49 90.6195   2
  -6  -3  -1 1676.28 149.290   7
   6  -3   1 1846.26 148.928   3
  -6  -3  -1 1539.13 139.824   1
  -6  -3  -1 1701.62 122.085   5
   6  -3   2 13191.8 383.138   4
   6  -3   2 12366.9 227.760   2
  -6  -3  -2 12111.9 392.692   7
   6  -3   2 12838.9 307.083   6
   6  -3   2 12791.2 374.150   3
  -6  -3  -2 12580.1 392.112   1
  -6  -3  -2 12250.6 305.345   5
   6  -3   3 2653.80 104.406   2
  -6  -3  -3 2531.34 197.026   7
   6  -3   3 2786.01 162.162   6
  -6  -3  -3 2725.91 144.311   5
   6  -3   3 2974.25 186.125   3
   6  -3   4 15138.0 245.948   2
  -6  -3  -4 14725.8 468.752   7
   6  -3   4 15009.0 406.782   3
   6  -3   4 14874.0 380.848   6
  -6  -3  -4 15115.9 315.670   5
   6  -3   5 2070.97 159.526   3
   6  -3   5 1886.46 93.2945   2
  -6  -3  -5 1701.46 182.283   7
   6  -3   5 1618.80 141.425   6
  -6  -3  -5 2050.90 113.747   5
  -6  -3  -6 1116.77 158.323   7
   6  -3   6 1461.12 86.9649   2
   6  -3   6 1427.33 138.758   3
  -6  -3  -6 1454.98 87.4334   5
   6  -3   7 605.538 78.3982   5
   6  -3   7 478.914 87.6929   1
  -6  -3  -7 415.972 111.857   7
   6  -3   7 555.035 94.9377   3
  -6  -3  -7 429.576 41.4501   5
   6  -3   7 626.679 65.0050   2
  -6  -3  -8 6876.78 382.747   7
   6  -3   8 7128.71 202.742   2
   6  -3   8 6689.57 276.951   3
   6  -3   8 7087.09 299.287   1
   6  -3   8 7092.73 236.703   5
  -6  -3  -9 182.297 111.852   7
   6  -3   9 348.425 88.6807   1
   6  -3   9 403.599 86.0537   3
   6  -3   9 222.861 53.4096   5
  -6  -3 -10 1239.29 194.676   7
   6  -3  10 1469.52 154.329   1
  -6  -3 -11 107.689 118.787   7
   6  -3  11 358.134 89.4816   1
  -6  -3 -12 95.7997 104.367   7
  -6  -3 -13 275.186 138.739   7
  -6  -2  18 1002.64 143.883   5
   6  -2 -17 400.476 85.9943   7
  -6  -2  17 259.717 100.469   5
   6  -2 -16 1171.53 127.231   7
   6  -2 -16 1196.77 103.728   3
  -6  -2  16 1295.05 151.537   5
   6  -2 -15 566.483 93.9460   7
  -6  -2  15 550.726 104.396   5
   6  -2 -15 706.114 87.8341   3
  -6  -2  14 2038.11 116.745   7
   6  -2 -14 1932.86 136.409   3
  -6  -2  14 1882.65 168.453   5
   6  -2 -14 2198.71 153.663   7
   6  -2 -13 1793.17 134.450   7
   6  -2 -13 1574.19 127.122   3
  -6  -2  13 1907.41 105.168   7
  -6  -2  13 1728.25 163.110   5
   6  -2 -13 1444.06 151.723   5
  -6  -2  12 16849.3 268.722   7
   6  -2 -12 17196.0 382.528   7
   6  -2 -12 16987.0 460.427   5
   6  -2 -12 17068.4 396.542   3
  -6  -2  12 16172.1 461.890   5
  -6  -2  11 1201.50 72.6747   7
   6  -2 -11 1661.38 122.105   7
   6  -2 -11 1545.53 147.659   5
   6  -2 -11 1524.74 126.738   3
  -6  -2  11 1371.44 142.139   5
  -6  -2  10 6697.49 143.885   7
   6  -2 -10 6555.51 226.800   7
  -6  -2  10 6569.09 284.287   6
   6  -2 -10 6404.29 244.041   3
   6  -2 -10 6564.64 275.646   5
  -6  -2  10 6506.57 276.929   5
   6  -2  -9 1395.73 135.786   5
   6  -2  -9 1236.36 105.471   7
  -6  -2   9 1285.29 132.660   6
   6  -2  -9 1397.65 146.501   2
   6  -2  -9 1168.15 113.135   3
  -6  -2   9 1193.36 125.674   5
   6  -2  -8 1444.63 139.171   2
   6  -2  -8 1396.39 127.849   5
   6  -2  -8 1470.77 120.074   3
  -6  -2   8 1559.68 137.071   5
  -6  -2   7 1927.27 85.0356   7
   6  -2  -7 1728.47 141.122   5
   6  -2  -7 1886.50 136.389   3
  -6  -2   7 2169.33 155.794   5
   6  -2  -7 1953.47 150.571   2
  -6  -2   6 34866.5 361.762   7
   6  -2  -6 33108.1 568.555   5
   6  -2  -6 33833.9 540.633   3
  -6  -2   6 33704.0 566.185   5
   6  -2  -6 34123.8 560.455   2
  -6  -2   5 4267.89 200.249   5
   6  -2  -5 4281.95 204.174   5
   6  -2  -5 4208.37 193.096   3
   6  -2  -5 4037.41 187.494   2
  -6  -2   5 4107.55 138.004   7
   6  -2  -4 38123.0 536.069   2
  -6  -2   4 39250.3 576.255   5
  -6  -2   4 38345.6 445.629   7
   6  -2  -4 38863.4 578.178   3
   6  -2  -4 38891.2 586.830   5
   6  -2  -3 10838.2 270.186   2
  -6  -2   3 10373.2 251.381   7
   6  -2  -3 10691.2 301.250   5
   6  -2  -3 10154.9 296.138   3
  -6  -2   3 10411.6 289.918   5
   6  -2  -2 36251.8 451.566   4
   6  -2  -2 35875.8 465.526   2
  -6  -2   2 35992.8 501.154   7
   6  -2  -2 36559.1 547.653   5
   6  -2  -2 36067.5 554.241   3
  -6  -2   2 36125.9 520.320   5
   6  -2  -1 4096.99 166.767   4
   6  -2  -1 3751.89 181.521   3
  -6  -2   1 3908.87 180.474   7
   6  -2  -1 4002.08 152.019   2
   6  -2  -1 4239.61 186.433   5
  -6  -2   1 4234.98 175.008   5
   6  -2   0 33130.7 356.890   6
   6  -2   0 33784.4 508.095   4
  -6  -2   0 34397.9 549.553   7
   6  -2   0 34014.3 511.141   5
   6  -2   0 34007.5 541.425   3
  -6  -2   0 33187.6 463.514   5
   6  -2   1 1943.10 137.059   4
   6  -2   1 1822.51 98.8875   6
   6  -2   1 1909.70 135.331   3
   6  -2   1 1821.89 123.532   5
  -6  -2  -1 1570.50 132.359   7
  -6  -2  -1 1647.69 103.179   5
   6  -2   2 1328.27 125.387   4
  -6  -2  -2 1327.07 129.502   7
   6  -2   2 1240.07 92.8231   6
  -6  -2  -2 1385.08 91.6893   5
   6  -2   2 1186.50 110.908   3
   6  -2   3 1303.26 130.938   4
   6  -2   3 1230.48 86.5308   2
   6  -2   3 1373.54 141.602   7
  -6  -2  -3 1228.72 83.4110   5
   6  -2   3 1182.95 101.969   6
   6  -2   3 1246.37 109.419   3
  -6  -2  -3 1340.99 138.555   7
  -6  -2  -4 5632.42 280.144   7
   6  -2   4 6217.41 191.074   2
   6  -2   4 6081.74 237.519   3
  -6  -2  -4 6105.78 158.820   5
   6  -2   4 5876.13 231.595   6
   6  -2   5 1554.00 103.526   2
   6  -2   5 1265.36 114.747   3
   6  -2   5 1502.10 102.410   5
  -6  -2  -5 1340.76 64.9170   5
   6  -2   5 1475.63 130.161   6
  -6  -2  -5 1425.56 158.606   7
  -6  -2  -6 16649.0 514.100   7
   6  -2   6 16738.7 434.169   1
   6  -2   6 16808.5 385.217   3
   6  -2   6 17344.1 456.598   6
   6  -2   6 17427.2 322.833   5
   6  -2   6 16972.3 350.760   2
  -6  -2  -7 1946.36 195.824   7
   6  -2   7 1644.97 125.669   2
   6  -2   7 1884.94 130.950   3
   6  -2   7 1855.45 159.390   1
   6  -2   7 1849.28 103.821   5
   6  -2   7 1723.74 96.7604   5
   6  -2   8 2022.05 169.223   1
   6  -2   8 2009.92 135.890   3
   6  -2   8 2160.79 145.685   2
   6  -2   8 1861.85 97.8926   5
  -6  -2  -8 2144.27 207.980   7
   6  -2   8 2000.45 94.9284   5
   6  -2   9 669.273 98.4807   2
   6  -2   9 685.608 82.2519   3
  -6  -2  -9 760.189 140.778   7
   6  -2   9 605.032 114.422   1
  -6  -2 -10 1333.40 189.140   7
   6  -2  10 1227.78 150.350   1
   6  -2  10 1496.08 139.576   2
   6  -2  11 410.585 107.734   1
  -6  -2 -11 156.244 96.5668   7
   6  -2  12 1398.83 175.503   1
  -6  -2 -12 1347.90 208.843   7
  -6  -2 -13 713.054 175.770   7
   6  -2  13 656.029 135.625   1
  -6  -1  19 1579.04 192.918   2
  -6  -1  18 174.390 84.0094   5
  -6  -1  18 161.613 89.7099   2
  -6  -1  17 2178.51 209.908   2
  -6  -1  17 1873.79 174.813   5
  -6  -1  16 4410.74 277.816   2
  -6  -1  16 3906.08 244.972   5
   6  -1 -16 3412.76 167.226   3
   6  -1 -15 446.878 76.9505   7
  -6  -1  15 407.718 93.4775   5
   6  -1 -15 355.662 64.9072   3
  -6  -1  15 500.314 106.012   2
   6  -1 -14 2597.44 196.685   1
   6  -1 -14 2666.90 146.208   7
  -6  -1  14 2101.58 119.141   7
  -6  -1  14 2357.19 182.505   5
   6  -1 -14 2679.18 193.099   5
   6  -1 -14 2443.45 147.895   3
  -6  -1  14 2744.02 204.027   2
  -6  -1  13 1140.78 143.071   2
   6  -1 -13 1001.81 99.0368   3
  -6  -1  13 914.977 73.5326   7
   6  -1 -13 1032.25 93.7757   7
  -6  -1  13 1044.30 122.201   5
   6  -1 -13 1075.23 129.582   5
   6  -1 -12 1226.50 90.6162   7
  -6  -1  12 1066.41 69.0697   7
   6  -1 -12 1206.08 108.177   3
  -6  -1  12 1138.63 122.923   5
   6  -1 -12 1102.58 124.236   5
  -6  -1  11 1438.87 64.7001   7
  -6  -1  11 1947.06 162.618   6
  -6  -1  11 1946.10 153.443   5
   6  -1 -11 1994.91 106.087   7
   6  -1 -11 2024.66 131.528   3
   6  -1 -11 1686.09 145.225   5
   6  -1 -10 9570.18 210.626   7
  -6  -1  10 9159.70 318.937   6
  -6  -1  10 9413.01 315.732   5
   6  -1 -10 9576.11 313.932   5
   6  -1 -10 9626.20 348.572   2
   6  -1 -10 9145.77 268.758   3
  -6  -1   9 2214.45 153.489   6
   6  -1  -9 2202.47 153.114   5
  -6  -1   9 2447.10 160.403   5
   6  -1  -9 2323.18 103.173   7
   6  -1  -9 2359.93 173.714   2
   6  -1  -9 2231.51 136.953   3
   6  -1  -8 23527.1 319.977   7
  -6  -1   8 24442.1 478.425   5
   6  -1  -8 25618.3 508.034   2
  -6  -1   8 24738.4 458.826   6
   6  -1  -8 24247.2 430.721   3
   6  -1  -8 25367.7 484.067   5
   6  -1  -7 133.649 45.1886   3
   6  -1  -7 129.411 56.6329   2
  -6  -1   7 124.038 48.0988   6
   6  -1  -7 197.203 61.1954   5
  -6  -1   7 221.138 64.6570   5
   6  -1  -6 1489.05 120.771   2
   6  -1  -6 1392.06 114.624   5
  -6  -1   6 1521.13 120.011   5
   6  -1  -6 1510.52 111.878   3
   6  -1  -5 773.670 85.2740   3
   6  -1  -5 872.275 90.3513   2
  -6  -1   5 907.341 51.4301   7
   6  -1  -5 899.753 94.6652   5
  -6  -1   5 807.694 89.1202   5
   6  -1  -4 20926.3 217.393   4
   6  -1  -4 22937.8 398.992   2
  -6  -1   4 23217.2 285.294   7
   6  -1  -4 23072.4 413.098   5
  -6  -1   4 23427.3 409.954   5
   6  -1  -4 22260.9 404.838   3
   6  -1  -3 3887.32 161.778   2
   6  -1  -3 3887.33 115.924   4
  -6  -1   3 4119.62 139.640   7
   6  -1  -3 4106.26 175.193   5
   6  -1  -3 3944.25 170.104   3
  -6  -1   3 3972.53 166.264   5
   6  -1  -2 26751.5 343.329   4
  -6  -1   2 24939.5 372.412   7
   6  -1  -2 26726.4 422.886   5
  -6  -1   2 25122.1 395.639   5
   6  -1  -2 25033.2 419.928   3
   6  -1  -1 839.111 72.7605   4
  -6  -1   1 959.272 87.6838   7
   6  -1  -1 963.602 46.9369   6
   6  -1  -1 990.985 84.5337   5
  -6  -1   1 781.045 79.0805   5
   6  -1  -1 946.696 91.7560   3
   6  -1   0 1667.66 120.309   7
   6  -1   0 1530.72 73.5472   6
   6  -1   0 1445.80 103.191   4
  -6  -1   0 1589.98 115.955   7
   6  -1   0 1475.66 97.3560   5
  -6  -1   0 1403.52 92.3420   5
   6  -1   0 1481.65 108.358   3
  -6  -1  -1 139.122 54.8074   7
   6  -1   1 106.590 35.8659   6
   6  -1   1 30.0825 48.9120   7
   6  -1   1 167.479 44.1842   5
   6  -1   1 157.945 54.8834   4
   6  -1   1 99.6281 50.7997   3
  -6  -1  -1 111.043 36.8312   5
   6  -1   2 25486.9 495.799   7
   6  -1   2 25581.4 476.727   4
   6  -1   2 25765.0 396.431   2
   6  -1   2 24434.7 385.574   6
   6  -1   2 24506.7 417.007   3
   6  -1   2 24830.1 356.470   5
  -6  -1  -2 25228.2 498.379   7
  -6  -1  -2 24524.4 316.406   5
   6  -1   3 2344.90 166.560   7
   6  -1   3 2400.72 161.667   4
   6  -1   3 2379.80 130.219   2
   6  -1   3 2140.12 129.222   6
  -6  -1  -3 2196.55 86.8045   5
   6  -1   3 2260.15 128.493   3
   6  -1   3 2404.87 107.355   5
  -6  -1  -3 2043.44 156.384   7
   6  -1   4 10006.1 344.785   4
   6  -1   4 10230.0 274.528   2
  -6  -1  -4 10361.0 361.399   7
   6  -1   4 10632.6 355.240   7
   6  -1   4 9911.51 296.686   6
   6  -1   4 10472.1 269.192   3
   6  -1   4 10297.7 320.770   1
   6  -1   4 10152.5 204.986   5
  -6  -1  -4 7973.27 133.608   5
   6  -1   5 2036.15 155.106   1
   6  -1   5 2146.60 152.450   6
   6  -1   5 1989.61 134.885   2
   6  -1   5 2080.15 122.670   3
   6  -1   5 1976.95 85.4630   5
  -6  -1  -5 2108.95 180.635   7
   6  -1   6 989.629 50.9480   5
   6  -1   6 1205.56 115.598   2
  -6  -1  -6 1277.83 146.212   7
   6  -1   6 1231.32 130.752   6
   6  -1   6 1172.91 93.8512   3
   6  -1   6 1322.34 133.571   1
   6  -1   6 850.816 47.2421   5
   6  -1   7 821.296 121.659   1
  -6  -1  -7 786.656 135.510   7
   6  -1   7 904.894 79.9460   3
   6  -1   7 1001.68 116.010   2
   6  -1   8 2399.44 115.577   3
   6  -1   8 2916.19 185.632   2
   6  -1   8 2749.38 202.309   1
  -6  -1  -8 2569.84 223.202   7
  -6  -1  -9 325.615 113.800   7
   6  -1   9 227.241 36.2573   3
   6  -1   9 401.721 95.6494   1
   6  -1   9 412.065 86.5327   2
   6  -1  10 4704.08 284.090   1
   6  -1  10 4508.00 253.232   2
  -6  -1 -10 4431.59 312.891   7
   6  -1  11 2308.93 212.600   1
   6  -1  11 2861.33 212.446   2
   6  -1  12 229.466 76.4676   2
   6  -1  12 153.268 95.0337   1
   6  -1  13 1600.01 200.920   1
  -6   0  21 491.454 136.370   2
  -6   0  20 729.086 173.104   2
  -6   0  19 568.006 146.878   2
   6   0 -18 1138.62 138.499   4
  -6   0  18 1096.74 140.324   5
  -6   0  18 1467.79 192.973   2
   6   0 -17 854.086 119.019   4
  -6   0  17 782.271 116.869   5
  -6   0  17 1227.09 171.484   2
   6   0 -16 1006.72 97.3097   3
   6   0 -16 1068.70 116.054   4
  -6   0  16 904.318 128.734   5
  -6   0  16 1329.97 178.260   2
   6   0 -15 1410.05 129.352   4
  -6   0  15 1445.33 131.779   4
   6   0 -15 1713.51 152.031   1
  -6   0  15 1446.56 149.253   5
  -6   0  15 1569.28 182.878   2
   6   0 -15 1594.33 118.912   3
   6   0 -14 2811.99 167.258   4
   6   0 -14 3386.62 194.286   1
  -6   0  14 2705.84 166.353   4
  -6   0  14 2599.57 193.044   5
  -6   0  14 2976.01 224.444   2
   6   0 -14 2536.10 193.437   5
   6   0 -14 3025.55 164.694   3
   6   0 -13 858.577 93.4356   3
   6   0 -13 683.201 87.8256   4
  -6   0  13 746.537 96.9523   4
  -6   0  13 711.429 100.674   5
   6   0 -13 735.117 108.313   5
  -6   0  13 808.486 131.632   2
   6   0 -12 572.602 82.6034   3
   6   0 -12 557.030 70.2885   4
  -6   0  12 448.813 72.8476   4
  -6   0  12 664.043 98.7960   5
  -6   0  12 467.612 101.725   2
   6   0 -12 712.935 104.690   5
   6   0 -11 333.113 64.9625   3
   6   0 -11 330.277 53.8195   4
  -6   0  11 322.879 78.3001   6
   6   0 -11 432.432 102.151   2
  -6   0  11 423.667 86.5879   5
  -6   0  11 301.996 85.4862   2
   6   0 -11 361.740 76.5261   5
   6   0 -10 3179.69 121.325   4
  -6   0  10 3085.10 190.253   2
   6   0 -10 3075.31 159.149   3
   6   0 -10 3077.03 177.148   6
  -6   0  10 3146.39 182.462   6
  -6   0  10 3210.99 184.989   5
   6   0 -10 3183.60 195.677   2
   6   0 -10 3178.68 183.862   5
   6   0  -9 761.441 54.7410   4
   6   0  -9 617.671 92.1066   2
   6   0  -9 667.674 81.4278   6
  -6   0   9 579.693 85.5967   6
  -6   0   9 664.023 87.5503   5
   6   0  -9 797.455 96.5314   5
  -6   0   9 870.941 103.890   2
  -6   0   8 17328.3 398.405   2
   6   0  -8 18033.3 406.779   2
   6   0  -8 17761.6 213.605   4
  -6   0   8 17608.5 357.873   6
   6   0  -8 17631.6 346.435   6
  -6   0   8 17474.5 391.045   5
   6   0  -8 17767.9 399.384   5
   6   0  -7 9223.25 130.988   4
   6   0  -7 10412.3 295.654   2
   6   0  -7 9867.02 236.298   6
  -6   0   7 9876.76 243.621   6
  -6   0   7 9938.50 288.853   5
   6   0  -7 10176.8 291.124   5
  -6   0   6 45573.0 593.061   5
   6   0  -6 44878.4 587.059   2
   6   0  -6 44551.3 445.026   6
  -6   0   6 44417.0 457.835   6
   6   0  -6 45839.2 595.695   5
   6   0  -5 337.918 41.9555   6
  -6   0   5 527.567 76.6014   5
   6   0  -5 408.074 68.0099   5
   6   0  -5 355.963 33.4066   7
   6   0  -5 297.477 63.9921   2
   6   0  -4 864.744 51.3701   4
   6   0  -4 863.249 57.6668   7
   6   0  -4 848.432 52.1815   6
  -6   0   4 916.842 89.0568   5
   6   0  -4 904.105 85.3029   5
   6   0  -3 954.415 62.9714   4
   6   0  -3 899.149 83.5136   3
   6   0  -3 911.776 68.2246   7
  -6   0   3 848.728 82.6051   5
   6   0  -3 937.665 84.3303   5
   6   0  -2 945.974 72.5992   4
   6   0  -2 842.500 81.3080   3
   6   0  -2 838.051 76.6641   7
  -6   0   2 943.068 83.9651   5
   6   0  -2 755.533 72.5692   5
   6   0  -1 457.131 64.6164   7
   6   0  -1 485.592 62.7810   3
  -6   0   1 479.071 65.5203   4
   6   0  -1 434.396 58.3377   4
  -6   0   1 467.729 59.0212   5
   6   0  -1 379.720 53.5047   5
  -6   0   0 43721.7 548.606   4
   6   0   0 44884.8 544.032   4
   6   0   0 44815.8 564.958   7
  -6   0   0 46428.3 483.325   5
   6   0   0 44265.8 454.518   5
   6   0   0 44993.0 524.807   3
  -6   0  -1 9462.58 277.951   4
   6   0   1 10157.6 289.793   7
   6   0   1 10058.8 279.658   4
   6   0   1 9476.13 260.929   2
  -6   0  -1 10125.1 215.359   5
  -6   0  -1 9861.71 291.975   7
   6   0   1 10324.1 207.344   5
   6   0   1 9958.08 248.521   3
   6   0   2 17862.0 409.787   7
  -6   0  -2 18234.6 405.495   4
   6   0   2 17402.5 393.362   4
   6   0   2 17182.9 353.861   2
   6   0   2 16799.5 384.609   1
   6   0   2 16986.8 248.774   5
  -6   0  -2 18083.3 417.364   7
   6   0   2 17264.5 318.080   3
   6   0   3 774.465 70.9091   3
   6   0   3 699.114 96.8234   7
  -6   0  -3 567.224 87.7771   4
   6   0   3 605.188 89.1768   4
   6   0   3 854.248 92.0588   2
  -6   0  -3 776.649 106.441   7
   6   0   3 702.100 48.7452   5
   6   0   3 838.051 104.943   1
  -6   0  -4 2816.10 186.784   4
   6   0   4 3040.33 194.148   4
   6   0   4 3148.36 171.357   2
   6   0   4 3036.61 194.533   7
   6   0   4 3318.70 181.883   6
   6   0   4 3243.36 189.170   1
   6   0   4 3024.64 133.251   3
   6   0   4 2330.21 71.7065   5
  -6   0  -5 309.574 89.8344   4
   6   0   5 303.707 69.5088   6
   6   0   5 388.084 79.0924   2
   6   0   5 435.471 86.1784   1
   6   0   5 314.708 50.1238   3
   6   0   6 716.096 111.383   1
  -6   0  -6 495.698 102.844   4
   6   0   6 511.701 98.9113   6
   6   0   6 563.429 98.2954   2
   6   0   6 614.385 60.1834   3
  -6   0  -7 913.909 131.836   4
   6   0   7 746.968 58.7843   3
   6   0   7 919.679 135.563   1
   6   0   7 894.579 117.037   2
  -6   0  -8 2936.10 231.009   4
   6   0   8 2792.72 215.735   1
   6   0   8 2858.47 199.597   2
  -6   0  -9 1452.35 169.990   4
   6   0   9 1633.42 173.421   1
   6   0   9 1808.71 174.975   2
   6   0  10 1387.81 173.550   1
  -6   0 -10 1161.01 165.138   4
   6   0  10 1339.32 157.927   2
  -6   0 -11 1040.92 176.998   4
   6   0  11 1092.52 159.542   1
   6   0  11 1171.55 147.053   2
   6   0  12 1461.13 178.657   2
  -6   0 -12 1426.30 203.082   4
   6   0  12 1509.41 191.999   1
   6   0  13 866.189 156.611   2
  -6   0 -13 470.352 146.007   4
   6   0  13 522.614 124.531   1
  -6   1  21 431.032 148.797   2
  -6   1  20 578.077 154.466   2
   6   1 -19 1262.63 157.414   4
  -6   1  19 1630.68 223.187   2
   6   1 -18 77.0536 74.5141   4
  -6   1  18 222.717 120.060   2
   6   1 -17 2225.41 181.375   4
  -6   1  17 2343.92 242.814   2
   6   1 -16 4429.86 243.798   4
  -6   1  16 4135.90 304.642   2
   6   1 -16 4530.43 210.714   3
  -6   1  16 3463.38 227.351   5
   6   1 -15 442.440 85.1121   4
  -6   1  15 343.219 77.7608   4
   6   1 -15 603.452 80.6352   1
  -6   1  15 295.404 89.2516   5
  -6   1  15 402.811 116.349   2
   6   1 -14 2806.82 176.928   4
  -6   1  14 2478.79 153.856   4
  -6   1  14 2289.11 207.215   2
   6   1 -14 2632.22 145.198   1
  -6   1  14 2506.01 186.771   5
   6   1 -13 984.550 134.253   6
   6   1 -13 1003.66 98.5030   1
   6   1 -13 943.877 104.607   4
  -6   1  13 948.595 97.0439   4
  -6   1  13 871.503 117.745   5
  -6   1  13 931.567 141.015   2
   6   1 -13 980.950 126.054   5
   6   1 -12 1137.81 134.100   6
   6   1 -12 1191.49 107.672   4
  -6   1  12 1052.91 90.4092   4
   6   1 -12 1302.23 138.924   2
  -6   1  12 1128.14 126.987   5
  -6   1  12 1209.67 143.560   2
   6   1 -12 1231.49 133.639   5
   6   1 -11 2118.24 127.447   4
  -6   1  11 2005.53 105.595   4
  -6   1  11 1976.57 175.690   2
   6   1 -11 2105.89 162.098   6
  -6   1  11 2090.41 161.619   6
  -6   1  11 2162.88 165.136   5
   6   1 -11 2187.74 167.499   2
   6   1 -11 2100.66 165.370   5
   6   1 -10 10107.7 249.686   4
  -6   1  10 9221.33 188.345   4
  -6   1  10 10296.3 353.215   2
   6   1 -10 10144.4 325.211   6
  -6   1  10 10395.9 320.380   6
  -6   1  10 10182.1 324.263   5
   6   1 -10 10131.0 330.724   5
   6   1 -10 10731.6 335.071   2
   6   1  -9 2160.57 146.673   2
   6   1  -9 2085.67 112.741   4
  -6   1   9 1765.28 71.4272   4
  -6   1   9 2469.24 172.692   2
   6   1  -9 2209.92 146.959   6
  -6   1   9 2084.40 137.691   6
  -6   1   9 2128.21 154.264   5
   6   1  -9 2399.98 159.749   5
   6   1  -8 24878.1 441.683   6
   6   1  -8 24087.2 341.237   4
   6   1  -8 25001.7 462.426   2
  -6   1   8 25466.1 414.610   6
  -6   1   8 25215.3 480.134   5
  -6   1   8 24639.8 502.932   2
   6   1  -8 25206.5 487.938   5
  -6   1   7 160.191 45.2017   6
   6   1  -7 128.938 43.8849   6
  -6   1   7 183.280 65.4038   5
   6   1  -7 154.954 61.3728   2
  -6   1   7 89.4464 49.9497   2
   6   1  -7 199.501 59.7299   5
   6   1  -6 1511.35 118.253   5
  -6   1   6 1482.19 119.895   2
  -6   1   6 1501.35 82.1983   6
   6   1  -6 1381.83 99.2350   6
  -6   1   6 1331.46 115.801   5
  -6   1   5 864.343 51.2401   6
   6   1  -5 864.573 79.8080   6
  -6   1   5 923.417 92.3346   5
   6   1  -5 964.480 93.6615   5
  -6   1   4 27270.0 446.471   3
  -6   1   4 25669.2 235.286   4
   6   1  -4 26314.3 312.649   7
   6   1  -4 26200.7 433.339   5
  -6   1   4 25214.7 438.848   5
  -6   1   3 4056.34 117.209   4
   6   1  -3 3812.00 136.458   7
  -6   1   3 3910.99 172.819   5
   6   1  -3 4142.54 170.293   5
  -6   1   3 4359.91 180.875   3
  -6   1   2 23472.0 326.447   4
   6   1  -2 22858.3 360.251   7
  -6   1   2 23677.4 414.561   3
  -6   1   2 23693.4 404.065   5
   6   1  -2 23253.6 378.956   5
  -6   1   1 860.239 79.7513   4
  -6   1   1 847.571 85.5121   3
   6   1  -1 856.366 85.8340   4
   6   1  -1 848.403 83.6456   7
   6   1  -1 845.605 76.6769   5
   6   1   0 1518.10 112.883   4
  -6   1   0 1408.54 106.243   4
   6   1   0 1539.79 117.213   2
   6   1   0 1444.62 108.624   7
   6   1   0 1523.15 118.899   1
   6   1   0 1424.62 90.5519   5
  -6   1   0 1565.95 115.424   3
  -6   1  -1 137.453 48.8405   3
   6   1   1 209.261 60.5427   4
  -6   1  -1 133.753 54.9339   4
   6   1   1 98.5944 51.8196   2
   6   1   1 160.621 65.8275   7
   6   1   1 141.980 57.9002   1
   6   1   1 134.208 36.5071   5
   6   1   2 24734.3 485.777   4
  -6   1  -2 24516.8 470.623   4
   6   1   2 25253.0 469.542   2
   6   1   2 25720.4 501.347   7
   6   1   2 23562.6 468.333   1
   6   1   2 24944.0 306.037   5
  -6   1  -2 24710.6 417.831   3
   6   1   3 2482.56 169.916   4
  -6   1  -3 2409.11 162.616   4
   6   1   3 2340.75 158.098   2
   6   1   3 2170.24 157.238   1
   6   1   3 2279.84 166.278   7
   6   1   3 1954.03 80.3135   5
  -6   1  -3 2526.24 133.902   3
   6   1   3 2509.64 119.480   3
  -6   1  -4 9366.74 336.444   4
   6   1   4 9571.38 336.736   4
   6   1   4 9379.36 315.580   2
   6   1   4 9181.24 338.342   7
   6   1   4 9061.25 221.012   3
   6   1   4 8820.43 316.728   1
  -6   1  -4 9473.49 254.763   3
  -6   1  -5 2084.24 172.851   4
   6   1   5 1885.80 163.282   1
   6   1   5 1882.42 96.8187   3
   6   1   5 1885.86 159.796   2
  -6   1  -6 1246.86 149.627   4
   6   1   6 1243.39 143.024   1
   6   1   6 1252.91 141.838   2
   6   1   6 1050.10 70.0786   3
  -6   1  -7 909.510 143.727   4
   6   1   7 1082.40 144.311   1
   6   1   7 645.438 46.9940   3
   6   1   7 1151.28 141.833   2
  -6   1  -8 2771.87 230.413   4
   6   1   8 2852.98 224.276   1
   6   1   8 2899.96 215.222   2
   6   1   9 386.568 99.2654   1
  -6   1  -9 394.451 117.357   4
   6   1   9 449.689 105.836   2
  -6   1 -10 4163.08 304.486   4
   6   1  10 4222.67 291.009   1
   6   1  10 4275.66 278.402   2
   6   1  11 2315.49 239.444   1
  -6   1 -11 1690.16 206.975   4
   6   1  11 2586.18 235.675   2
   6   1  12 139.482 105.421   2
  -6   1 -12 238.284 122.151   4
   6   1  12 188.020 116.555   1
   6   1  13 1310.39 195.127   2
  -6   1 -13 1155.38 201.035   4
   6   1  14 596.088 152.327   2
   6   1  15 251.209 154.540   2
  -6   2  20 224.662 134.916   2
   6   2 -19 954.848 151.276   4
  -6   2  19 802.259 196.752   2
   6   2 -18 1123.45 152.343   4
  -6   2  18 1315.08 201.416   2
   6   2 -17 225.067 88.1042   4
  -6   2  17 339.364 119.959   2
   6   2 -16 1427.60 155.562   4
   6   2 -16 1283.09 182.026   6
  -6   2  16 1391.32 188.419   2
   6   2 -15 721.418 109.282   4
  -6   2  15 576.737 89.0758   4
   6   2 -15 690.009 110.078   3
   6   2 -15 563.913 131.991   6
  -6   2  15 671.834 147.334   2
   6   2 -14 1937.15 161.878   4
  -6   2  14 1546.82 121.753   4
   6   2 -14 2017.04 165.311   3
   6   2 -14 2038.64 197.091   6
   6   2 -14 2134.75 84.5457   1
  -6   2  14 2048.12 209.229   2
   6   2 -13 1794.31 146.983   4
  -6   2  13 1598.66 116.216   4
   6   2 -13 1826.57 75.3073   1
   6   2 -13 1683.92 173.193   6
  -6   2  13 1923.04 207.085   2
   6   2 -13 1847.83 164.724   2
  -6   2  12 16885.2 523.706   2
  -6   2  12 14958.7 306.598   4
   6   2 -12 16724.8 408.339   4
   6   2 -12 16541.7 211.185   1
   6   2 -12 16754.8 489.186   6
   6   2 -12 17530.0 451.900   2
   6   2 -11 1414.85 63.4791   1
  -6   2  11 1321.73 86.6885   4
   6   2 -11 1230.26 113.027   4
   6   2 -11 1595.91 150.082   6
   6   2 -11 1452.82 130.195   2
  -6   2  11 1203.88 129.058   6
  -6   2  11 1228.65 146.813   2
   6   2 -11 1237.92 133.909   5
   6   2 -10 6250.63 250.596   2
  -6   2  10 5582.08 151.951   4
  -6   2  10 6177.58 290.487   2
   6   2 -10 5755.39 227.214   4
  -6   2  10 5405.38 239.946   6
   6   2 -10 5983.18 264.634   6
   6   2 -10 5988.70 265.541   5
  -6   2   9 1180.76 63.4237   4
   6   2  -9 1271.77 108.127   4
  -6   2   9 1143.98 107.632   6
   6   2  -9 1262.28 121.825   6
  -6   2   9 1519.44 149.823   2
   6   2  -9 1165.47 108.704   2
   6   2  -9 1160.27 119.361   5
  -6   2   8 1226.66 57.0034   4
   6   2  -8 1326.50 109.907   2
   6   2  -8 1215.75 116.216   6
  -6   2   8 1065.59 122.408   2
  -6   2   8 1195.40 102.006   6
   6   2  -8 1190.62 118.802   5
  -6   2   8 1191.96 110.842   3
  -6   2   7 1928.81 150.034   2
   6   2  -7 1798.57 129.944   6
   6   2  -7 2065.75 149.339   5
  -6   2   7 1906.32 136.508   3
  -6   2   6 33471.3 555.348   2
   6   2  -6 32802.3 506.301   6
   6   2  -6 33419.5 554.789   5
  -6   2   6 34705.2 548.773   3
  -6   2   5 3809.74 105.166   4
   6   2  -5 3769.89 136.199   1
  -6   2   5 3959.28 186.731   2
  -6   2   5 4263.50 194.507   3
   6   2  -5 4037.43 190.444   5
  -6   2   4 36170.9 358.250   4
  -6   2   4 35981.9 514.139   2
   6   2  -4 35242.5 429.394   1
  -6   2   4 36500.8 564.180   3
   6   2  -4 36624.5 547.140   5
  -6   2   3 10129.4 216.154   4
   6   2  -3 9922.98 248.537   1
  -6   2   3 10421.2 301.467   3
   6   2  -3 10144.8 279.074   5
  -6   2   2 38235.1 461.394   4
   6   2  -2 38373.6 529.933   7
  -6   2   2 35013.4 249.660   6
   6   2  -2 37955.8 509.352   1
  -6   2   2 39139.6 578.364   3
   6   2  -2 39593.4 532.392   5
  -6   2   1 4446.55 174.897   4
   6   2  -1 4204.24 192.416   2
   6   2  -1 4154.88 188.718   7
   6   2  -1 4158.33 181.765   1
  -6   2   1 4442.36 110.399   6
  -6   2   1 4311.85 193.183   3
   6   2  -1 4147.31 172.673   5
   6   2   0 33572.9 529.180   1
  -6   2   0 34050.4 363.001   6
  -6   2   0 34263.3 509.863   4
   6   2   0 32729.7 540.903   2
   6   2   0 33262.7 551.130   7
  -6   2   0 33454.8 535.378   3
   6   2   0 34759.7 466.182   5
   6   2   1 1872.98 142.173   4
  -6   2  -1 1851.06 138.453   4
   6   2   1 1746.73 139.274   2
   6   2   1 1817.28 144.450   1
  -6   2  -1 1987.22 104.274   6
   6   2   1 1777.43 142.153   7
  -6   2  -1 2055.50 139.752   3
   6   2   1 1896.42 111.083   5
   6   2   2 1507.69 135.482   4
  -6   2  -2 1602.39 134.438   4
   6   2   2 1480.88 131.142   2
   6   2   2 1621.19 139.706   1
   6   2   2 1445.38 137.316   7
  -6   2  -2 1593.08 124.172   3
   6   2   3 1255.13 130.663   4
  -6   2  -3 1159.99 120.979   4
   6   2   3 1163.97 133.865   7
   6   2   3 1320.92 129.689   2
   6   2   3 1315.66 138.020   1
  -6   2  -3 1110.08 103.616   3
  -6   2  -4 6721.54 241.304   3
  -6   2  -4 6338.18 284.930   4
   6   2   4 6307.73 286.116   1
   6   2   4 6577.39 286.833   2
  -6   2  -5 1765.74 166.211   4
   6   2   5 1445.07 165.361   1
  -6   2  -5 1748.05 128.661   3
   6   2   5 1520.97 155.113   2
  -6   2  -6 17582.3 514.975   4
   6   2   6 17112.0 509.307   1
   6   2   6 16728.5 492.383   2
   6   2   6 16133.1 281.642   3
  -6   2  -6 17060.4 382.798   3
   6   2   6 16817.4 291.451   3
   6   2   7 1741.93 191.530   1
  -6   2  -7 1769.92 187.537   4
   6   2   7 1368.91 76.7207   3
   6   2   7 1634.92 179.469   2
   6   2   7 1415.27 75.3477   3
  -6   2  -7 1881.20 132.284   3
   6   2   8 2176.54 210.575   1
  -6   2  -8 1653.63 187.453   4
   6   2   8 1949.37 195.517   2
  -6   2  -8 2100.16 135.894   3
  -6   2  -9 725.435 140.063   4
   6   2   9 647.751 130.511   1
   6   2   9 619.994 131.619   2
  -6   2 -10 1419.87 188.252   4
   6   2  10 1198.50 193.096   1
   6   2  10 1254.18 172.657   2
  -6   2 -11 405.697 138.320   4
   6   2  11 569.004 143.472   2
  -6   2 -12 763.002 170.313   4
   6   2  12 1206.32 185.572   2
   6   2  13 894.776 185.301   2
  -6   2 -13 702.850 175.103   4
   6   2  14 174.327 129.859   2
   6   2  15 1139.86 230.749   2
   6   3 -19 381.466 121.237   4
  -6   3  19 360.644 140.507   2
   6   3 -18 314.473 117.354   4
  -6   3  18 338.368 133.305   2
   6   3 -17 396.375 110.487   4
   6   3 -17 300.320 116.946   6
  -6   3  17 247.428 126.142   2
   6   3 -16 1493.48 170.624   4
  -6   3  16 1401.44 204.182   2
   6   3 -16 1394.78 192.382   6
   6   3 -15 208.430 104.831   6
  -6   3  15 251.547 99.0802   2
   6   3 -15 437.059 101.943   4
  -6   3  14 6759.70 382.152   2
  -6   3  14 5686.17 232.738   4
   6   3 -14 6837.65 312.736   4
   6   3 -14 6563.04 356.730   6
   6   3 -14 6722.25 294.056   2
   6   3 -13 538.355 107.227   4
  -6   3  13 514.647 78.4375   4
  -6   3  13 475.371 130.815   2
   6   3 -13 432.645 89.4913   2
   6   3 -13 620.707 129.440   6
  -6   3  12 1213.21 101.802   4
   6   3 -12 1654.91 151.744   4
   6   3 -12 1482.20 137.730   2
   6   3 -12 1375.39 159.822   6
  -6   3  12 1324.65 174.111   2
   6   3 -11 1787.31 142.663   2
  -6   3  11 1657.93 108.232   4
   6   3 -11 1953.18 155.690   4
   6   3 -11 1568.02 153.013   3
   6   3 -11 1777.96 168.697   6
  -6   3  11 1608.35 180.535   2
  -6   3  11 1719.89 145.697   3
  -6   3  10 14720.0 473.897   2
  -6   3  10 14129.7 283.532   4
   6   3 -10 14619.5 399.779   4
   6   3 -10 14658.8 373.226   2
   6   3 -10 14684.6 443.783   6
  -6   3  10 14863.7 396.949   3
  -6   3   9 2649.52 121.776   4
  -6   3   9 2665.99 202.388   2
   6   3  -9 2645.40 168.250   4
   6   3  -9 2396.35 152.172   2
   6   3  -9 2588.63 181.864   6
   6   3  -9 2603.92 189.783   5
  -6   3   9 2860.10 181.581   3
   6   3  -8 11030.1 152.801   1
  -6   3   8 11926.4 388.071   2
   6   3  -8 11827.9 368.270   6
  -6   3   8 12936.4 368.655   3
   6   3  -8 12544.5 390.159   5
  -6   3   7 1715.12 150.424   2
   6   3  -7 2029.40 83.1767   1
   6   3  -7 1780.58 144.100   6
  -6   3   7 1699.11 143.506   3
   6   3  -7 1697.40 149.828   5
  -6   3   6 1676.33 137.768   2
   6   3  -6 1796.17 89.4586   1
  -6   3   6 1646.31 141.226   3
   6   3  -6 1889.53 148.706   5
   6   3  -6 1746.49 140.191   6
   6   3  -5 889.417 105.378   5
  -6   3   5 949.770 110.635   3
  -6   3   5 1002.42 80.5600   4
   6   3  -5 1017.68 76.7561   1
  -6   3   5 865.064 100.255   2
  -6   3   4 41239.4 585.587   2
  -6   3   4 41881.5 492.127   4
   6   3  -4 40259.9 499.544   1
  -6   3   4 43031.5 665.228   3
   6   3  -4 42377.4 652.060   5
  -6   3   3 8450.21 237.087   4
   6   3  -3 7871.10 235.367   1
  -6   3   3 8124.58 246.354   2
  -6   3   3 7942.05 291.934   3
   6   3  -3 8046.66 279.080   5
  -6   3   2 42034.6 555.259   4
   6   3  -2 41428.1 614.198   2
   6   3  -2 41777.6 576.098   1
  -6   3   2 40329.3 414.692   6
  -6   3   2 43377.2 675.361   3
   6   3  -2 42388.3 617.328   5
   6   3  -1 850.476 96.5349   5
   6   3  -1 827.944 102.538   2
  -6   3   1 929.612 95.5834   4
   6   3  -1 868.393 103.444   1
  -6   3   1 985.803 71.2708   6
  -6   3   1 987.571 110.230   3
  -6   3   0 1853.42 141.394   4
   6   3   0 1704.31 137.891   1
   6   3   0 1500.33 133.041   2
   6   3   0 1774.29 155.673   7
  -6   3   0 1958.30 149.674   3
  -6   3   0 1873.44 104.743   6
  -6   3  -1 1601.02 135.708   4
   6   3   1 1533.90 138.692   1
   6   3   1 1539.51 139.319   2
   6   3   1 1478.18 147.306   7
  -6   3  -1 1455.70 102.426   6
  -6   3  -1 1463.26 133.886   3
  -6   3  -2 11919.5 367.817   4
   6   3   2 12079.4 380.728   1
   6   3   2 11043.0 367.035   2
   6   3   2 11665.1 396.965   7
  -6   3  -2 12152.4 302.442   6
  -6   3  -2 11828.3 358.172   3
  -6   3  -3 2872.76 198.290   4
   6   3   3 2636.05 197.306   1
   6   3   3 2757.87 197.436   2
   6   3   3 2467.96 148.653   3
  -6   3  -3 3073.96 169.648   6
  -6   3  -3 3049.84 188.708   3
   6   3   4 14637.8 452.980   2
  -6   3  -4 14607.2 451.758   4
   6   3   4 14154.2 453.978   1
   6   3   4 14294.0 339.197   3
  -6   3  -4 14111.4 378.334   6
  -6   3  -4 13876.8 404.333   3
  -6   3  -5 1778.13 182.928   4
   6   3   5 1517.24 118.345   3
  -6   3  -5 1824.86 150.579   6
   6   3   5 1533.85 168.408   2
  -6   3  -5 1900.13 154.845   3
   6   3   5 1635.23 173.726   1
  -6   3  -6 1373.03 130.386   3
  -6   3  -6 1658.20 179.984   4
   6   3   6 1241.26 102.385   3
   6   3   6 1552.54 181.767   2
   6   3   6 1294.62 176.733   1
  -6   3  -7 460.079 86.8603   3
  -6   3  -7 670.961 130.093   4
   6   3   7 491.483 61.5281   3
   6   3   7 549.142 123.711   1
   6   3   7 506.867 116.974   2
   6   3   8 7533.45 393.171   1
  -6   3  -8 7602.61 383.690   4
  -6   3  -8 7203.42 279.080   3
   6   3   8 7121.03 374.718   2
   6   3   8 6005.04 162.515   3
  -6   3  -9 129.273 97.9157   4
   6   3   9 234.155 117.519   2
  -6   3 -10 1185.46 179.794   4
   6   3  10 1612.68 215.456   2
  -6   3 -11 334.141 127.125   4
   6   3  11 314.789 136.807   2
  -6   3 -12 11.1434 101.424   4
   6   3  12-55.0027 105.412   2
   6   3  13 321.396 153.588   2
   6   4 -19 403.184 120.286   4
   6   4 -18 906.254 155.935   4
   6   4 -18 721.143 175.631   6
  -6   4  18 1268.48 224.766   2
   6   4 -17 117.060 99.5298   4
   6   4 -17 345.405 125.418   6
  -6   4  17 320.899 142.842   2
   6   4 -16 1517.09 176.612   4
   6   4 -16 1646.04 215.090   6
  -6   4  16 1446.36 217.265   2
   6   4 -15 1111.71 174.079   6
  -6   4  15 1279.82 205.494   2
   6   4 -15 1016.51 145.696   4
   6   4 -14 807.188 136.093   4
  -6   4  14 677.522 151.592   2
   6   4 -14 919.535 153.079   6
  -6   4  13 623.345 104.813   3
  -6   4  13 553.218 83.7156   4
   6   4 -13 590.646 102.429   2
  -6   4  13 689.310 150.124   2
   6   4 -13 559.271 129.941   6
   6   4 -13 711.967 121.701   4
  -6   4  12 7668.70 391.571   2
  -6   4  12 6693.75 246.785   4
   6   4 -12 7354.81 331.374   4
   6   4 -12 7921.29 376.645   6
   6   4 -12 7036.45 270.989   2
  -6   4  12 7612.95 312.306   3
  -6   4  11 228.834 75.0488   3
   6   4 -11 252.646 69.5728   2
  -6   4  11 285.837 66.7137   4
   6   4 -11 328.099 97.0576   4
  -6   4  11 253.134 111.026   2
   6   4 -11 159.661 87.6788   6
   6   4 -10 2159.05 180.884   4
   6   4 -10 2302.78 149.414   2
   6   4 -10 2413.42 199.940   6
  -6   4  10 2051.78 204.082   2
  -6   4  10 1913.61 166.902   3
  -6   4   9 812.921 117.455   3
  -6   4   9 956.578 140.617   2
   6   4  -9 797.660 123.970   6
   6   4  -9 805.648 92.8578   2
  -6   4   8 5411.36 283.102   2
   6   4  -8 5088.01 265.876   6
  -6   4   8 5205.81 262.379   3
   6   4  -7 1577.65 151.879   6
  -6   4   7 1510.46 151.251   2
  -6   4   7 1590.59 148.772   3
  -6   4   6 15493.3 425.599   2
   6   4  -6 15987.0 441.163   6
  -6   4   6 17361.8 465.731   3
  -6   4   5 1584.43 144.057   2
   6   4  -5 1699.27 131.818   2
  -6   4   5 1574.54 152.973   3
   6   4  -5 1580.07 153.418   3
   6   4  -5 1771.99 163.074   5
   6   4  -4 23169.7 417.859   1
   6   4  -4 22988.9 527.796   5
  -6   4   4 22314.9 428.873   4
   6   4  -4 22481.1 464.300   2
  -6   4   4 22372.1 458.378   2
  -6   4   4 23700.2 546.654   3
   6   4  -4 23033.2 538.947   3
   6   4  -3 325.801 72.3616   2
  -6   4   3 253.437 64.0457   4
   6   4  -3 317.222 86.3260   3
   6   4  -3 168.137 63.5792   1
  -6   4   3 309.451 68.0157   2
  -6   4   3 236.777 81.7842   3
   6   4  -2 21456.9 458.440   1
  -6   4   2 22316.2 461.729   4
   6   4  -2 21634.8 476.944   2
   6   4  -2 21075.0 501.905   3
  -6   4   2 21436.3 396.123   2
  -6   4   2 22314.7 542.579   3
   6   4  -1 1380.91 135.738   1
  -6   4   1 1378.29 129.059   4
   6   4  -1 1495.45 141.027   2
   6   4  -1 1493.61 144.099   3
  -6   4   1 1272.26 100.712   6
  -6   4   1 1516.63 151.259   3
   6   4   0 16857.1 448.924   1
  -6   4   0 16855.0 435.089   4
   6   4   0 17120.3 453.157   2
   6   4   0 16548.8 437.084   3
  -6   4   0 16250.9 347.495   6
  -6   4   0 16467.6 467.841   3
  -6   4  -1 1743.23 154.289   4
   6   4   1 1567.18 152.489   2
   6   4   1 1553.07 141.897   3
  -6   4  -1 1705.45 125.230   6
  -6   4  -1 1671.77 157.519   3
   6   4   1 1443.40 152.465   1
   6   4   2 5272.11 280.182   1
  -6   4  -2 5102.30 265.771   4
   6   4   2 5474.60 249.747   3
   6   4   2 5421.02 277.350   2
  -6   4  -2 5461.38 224.195   6
  -6   4  -3 875.456 123.896   4
   6   4   3 676.148 101.333   3
  -6   4  -3 900.803 105.000   6
   6   4   3 959.244 136.610   2
   6   4   3 651.513 123.317   1
  -6   4  -4 2021.61 187.166   4
   6   4   4 2189.58 158.901   3
  -6   4  -4 2020.01 157.994   6
   6   4   4 2341.10 212.466   2
   6   4   4 1826.50 189.550   1
  -6   4  -5 326.448 84.7310   4
  -6   4  -5 294.142 86.4197   6
   6   4   5 167.894 65.6829   3
   6   4   5 173.887 93.0007   2
  -6   4  -6 8338.07 396.699   4
   6   4   6 7399.22 374.173   2
   6   4   6 7478.15 266.308   3
  -6   4  -6 7617.86 333.159   6
  -6   4  -7 678.266 137.794   4
  -6   4  -7 665.662 114.161   6
   6   4   7 823.700 151.682   2
  -6   4  -8 784.536 150.127   4
   6   4   8 708.387 145.517   2
  -6   4  -9 1011.62 175.044   4
   6   4   9 756.223 161.904   2
  -6   4 -10 1392.32 204.928   4
   6   4  10 1547.90 212.602   2
  -6   4 -11 353.688 134.464   4
   6   4  11 251.081 124.222   2
   6   4  12 852.366 178.050   2
  -6   4 -12 717.834 173.171   4
   6   5 -19 1097.18 185.302   4
   6   5 -18 215.177 116.909   4
   6   5 -17 1121.35 180.914   4
   6   5 -16 1705.77 212.041   4
   6   5 -16 1253.93 192.942   6
  -6   5  16 1495.19 237.405   2
   6   5 -15 542.885 123.406   4
  -6   5  15 589.847 166.031   2
   6   5 -15 517.820 140.426   6
   6   5 -14 2060.64 207.800   4
  -6   5  14 2223.00 251.358   2
   6   5 -14 1911.10 221.556   6
   6   5 -13 675.699 136.011   4
  -6   5  13 642.687 167.833   2
   6   5 -13 785.135 150.545   6
  -6   5  12 3367.08 201.674   4
   6   5 -12 3712.54 260.055   4
   6   5 -12 3938.94 279.920   6
  -6   5  12 4253.08 307.625   2
   6   5 -11 480.651 112.643   4
  -6   5  11 487.032 124.920   2
   6   5 -11 693.653 137.443   6
   6   5 -11 499.226 78.6602   2
   6   5 -10 7544.73 270.921   2
   6   5 -10 7577.84 355.139   4
   6   5 -10 7786.53 371.792   6
  -6   5  10 7728.15 383.763   2
  -6   5   9 1709.67 193.756   2
   6   5  -9 1766.83 184.071   6
  -6   5   8 10229.4 404.441   2
   6   5  -8 10665.1 318.314   2
   6   5  -8 10654.1 413.178   6
  -6   5   7 1042.91 146.550   2
   6   5  -7 1068.57 136.990   6
   6   5  -7 1248.34 115.790   2
   6   5  -6 204.506 71.3732   2
  -6   5   6 133.578 87.9465   2
   6   5  -5 691.932 102.305   2
  -6   5   5 715.953 112.465   2
  -6   5   4 10040.9 330.862   2
   6   5  -4 10300.9 333.748   2
  -6   5   3 1671.15 145.670   4
   6   5  -3 1609.16 149.106   2
  -6   5   3 1435.40 128.544   2
  -6   5   2 11167.9 368.639   4
   6   5  -2 10476.2 364.404   2
  -6   5   2 10233.8 296.214   2
  -6   5   1 676.906 111.865   4
   6   5  -1 699.199 116.323   2
  -6   5   1 549.991 85.7219   6
   6   5   0 313.485 88.7092   2
  -6   5   0 342.747 78.9510   6
  -6   5   0 259.169 85.5328   4
  -6   5  -1 1567.10 169.933   4
  -6   5  -1 1730.42 140.293   6
   6   5   1 1752.73 177.280   2
  -6   5  -2 12147.9 433.870   4
   6   5   2 12214.8 446.874   2
  -6   5  -2 12137.9 368.832   6
  -6   5  -3 2240.75 200.004   4
   6   5   3 2074.29 201.840   2
  -6   5  -3 1906.89 160.738   6
   6   5   4 8129.69 389.777   2
  -6   5  -4 8563.47 391.245   4
   6   5   4 8104.29 324.781   3
  -6   5  -4 9012.98 345.955   6
   6   5   5 364.429 79.9686   3
  -6   5  -5 598.941 104.171   6
  -6   5  -5 596.322 129.009   4
   6   5   5 765.593 143.439   2
  -6   5  -6 4321.98 304.187   4
   6   5   6 3825.28 293.129   2
  -6   5  -6 3810.61 252.462   6
  -6   5  -7 430.627 127.464   4
  -6   5  -7 467.173 113.344   6
   6   5   7 644.295 145.738   2
  -6   5  -8 1795.35 223.287   4
  -6   5  -8 1492.55 185.588   6
   6   5   8 2396.67 254.727   2
  -6   5  -9 493.755 135.526   4
  -6   5  -9 329.658 114.089   6
   6   5   9 389.895 147.363   2
  -6   5 -10 1549.45 223.257   4
   6   5  10 1320.56 219.937   2
   6   5  11 1145.39 216.827   2
   6   6 -17 459.760 142.919   4
   6   6 -16 13.6571 112.013   4
  -6   6  15 1133.97 209.021   2
   6   6 -15 998.304 191.794   6
   6   6 -15 873.640 166.802   4
   6   6 -14 816.270 159.301   4
  -6   6  14 1054.64 192.927   2
   6   6 -14 954.973 177.874   6
   6   6 -13 506.848 130.976   4
   6   6 -13 404.265 126.739   6
  -6   6  13 658.548 174.563   2
   6   6 -12 3139.99 261.122   4
   6   6 -12 3346.57 283.708   6
  -6   6  12 2941.95 275.559   2
   6   6 -11 347.173 63.0614   2
   6   6 -11 304.353 96.2898   4
  -6   6  11 303.743 116.573   2
   6   6 -11 247.187 105.056   6
   6   6 -10 3366.59 261.133   4
   6   6 -10 2918.66 172.253   2
   6   6 -10 3036.84 252.295   6
  -6   6  10 3123.81 264.326   2
   6   6  -9 318.230 71.1063   2
  -6   6   9 496.527 124.149   2
   6   6  -9 704.859 135.553   6
   6   6  -8 1458.52 134.249   2
   6   6  -8 1771.51 191.192   6
  -6   6   8 1679.23 196.719   2
  -6   6   7 1973.81 195.080   2
   6   6  -7 1820.40 147.657   2
   6   6  -7 1984.45 202.201   6
  -6   6   6 8288.21 357.943   2
   6   6  -6 8163.87 302.293   2
   6   6  -5 473.723 93.9008   2
  -6   6   5 519.558 109.929   2
  -6   6   4 1111.64 124.910   2
   6   6  -4 1157.73 129.905   2
  -6   6   3 145.154 75.5766   4
   6   6  -3 205.301 83.1629   2
  -6   6   3 19.2736 63.2958   2
  -6   6   2 671.575 121.410   4
   6   6  -2 768.925 118.896   2
  -6   6   2 705.605 98.6832   2
   6   6  -1 516.188 105.898   2
  -6   6   1 476.759 91.6731   6
  -6   6   1 503.980 108.036   4
  -6   6   0 8546.52 373.534   4
   6   6   0 7788.91 358.068   2
  -6   6   0 8318.75 319.713   6
  -6   6  -1 2035.72 197.415   4
  -6   6  -1 1876.83 158.996   6
   6   6   1 1967.43 193.115   2
  -6   6  -2 1436.97 143.970   6
   6   6   2 1451.07 182.055   2
  -6   6  -2 1549.44 180.367   4
  -6   6  -3 649.029 126.973   4
  -6   6  -3 496.196 99.5896   6
   6   6   3 405.945 126.600   2
  -6   6  -4 3001.46 254.277   4
  -6   6  -4 3042.85 225.440   6
   6   6   4 2668.98 243.515   2
  -6   6  -5 364.131 112.432   4
  -6   6  -5 408.994 100.435   6
   6   6   5 390.908 124.801   2
  -6   6  -6 2815.79 264.567   4
   6   6   6 3169.12 292.667   2
  -6   6  -6 2739.97 229.512   6
  -6   6  -7 603.143 142.768   4
  -6   6  -7 520.809 133.517   6
   6   6   7 279.841 141.640   2
  -6   6  -8 1254.90 188.868   6
  -6   6  -8 984.057 185.115   4
   6   6   8 832.588 157.904   2
  -6   6  -9 1216.94 207.455   4
  -6   6  -9 819.591 173.525   6
   6   6   9 1120.70 210.960   2
  -6   6 -10 103.713 111.069   6
   6   7 -15 338.687 144.334   4
   6   7 -14 1293.11 201.369   4
  -6   7  14 817.617 196.321   2
   6   7 -13 591.181 143.565   4
  -6   7  13 503.255 144.484   2
   6   7 -13 817.105 162.130   6
   6   7 -12 1610.89 213.202   4
  -6   7  12 1585.75 230.274   2
   6   7 -12 1726.49 223.006   6
   6   7 -11 306.634 117.993   4
  -6   7  11 327.981 138.341   2
   6   7 -11 549.401 130.025   6
   6   7 -10 2859.16 263.071   4
   6   7 -10 2848.56 260.825   6
  -6   7  10 2498.03 260.765   2
   6   7  -9 1006.75 112.549   2
  -6   7   9 1097.95 177.239   2
   6   7  -9 960.953 157.267   6
  -6   7   8 8016.29 405.600   2
   6   7  -8 8593.76 314.412   2
   6   7  -8 8079.02 425.751   6
   6   7  -7 850.712 121.247   2
  -6   7   7 961.033 147.838   2
   6   7  -7 856.556 137.390   6
  -6   7   6 65.7515 80.3843   2
   6   7  -6 220.699 106.710   6
   6   7  -6 59.2417 69.2854   2
  -6   7   5 71.7016 82.3367   2
   6   7  -5 110.280 69.0963   2
  -6   7   4 2932.98 206.585   2
   6   7  -4 3351.97 222.880   2
  -6   7   3 444.600 116.489   4
   6   7  -3 489.178 109.562   2
  -6   7   3 675.341 111.055   2
  -6   7   2 3699.81 264.874   4
  -6   7   2 3256.50 195.159   2
   6   7  -2 3072.13 231.229   2
  -6   7   1 92.2234 64.4956   6
  -6   7   1 92.8483 76.4286   4
   6   7  -1 115.914 86.9742   2
   6   7   0 144.777 103.108   2
  -6   7   0 217.567 74.5090   6
  -6   7   0 171.267 93.7226   4
  -6   7  -1 1182.36 179.739   4
  -6   7  -1 1029.03 138.627   6
   6   7   1 822.904 139.087   2
  -6   7  -2 7574.57 398.852   4
   6   7   2 7703.94 403.098   2
  -6   7  -2 8326.03 369.673   6
  -6   7  -3 1107.38 177.323   4
  -6   7  -3 1056.36 148.311   6
   6   7   3 1085.22 167.610   2
  -6   7  -4 2431.81 250.449   4
   6   7   4 2623.35 267.452   2
  -6   7  -4 2366.41 217.607   6
  -6   7  -5 234.680 119.485   4
  -6   7  -5 281.702 95.8750   6
   6   7   5 176.133 113.585   2
  -6   7  -6 1757.47 204.588   6
  -6   7  -6 1244.50 200.007   4
   6   7   6 1650.53 222.323   2
  -6   7  -7 568.620 152.127   4
  -6   7  -7 461.789 132.783   6
   6   7   7 641.837 173.150   2
  -6   7  -8 873.594 169.435   6
  -6   7  -9 285.785 131.895   6
  -6   7 -10 1089.35 203.060   6
  -6   8  12 1546.83 239.487   2
   6   8 -11 406.407 156.876   4
  -6   8  11 268.870 154.677   2
  -6   8  10 481.970 151.116   2
   6   8 -10 531.056 142.506   6
   6   8 -10 777.973 175.339   4
  -6   8   9 499.611 142.183   2
   6   8  -9 650.578 146.002   6
  -6   8   8 1704.27 220.393   2
   6   8  -8 1821.71 224.804   6
  -6   8   7 261.774 98.0893   2
   6   8  -7 568.477 132.936   6
  -6   8   6 7382.09 380.375   2
   6   8  -6 7713.17 437.870   6
   6   8  -6 7984.73 342.518   2
  -6   8   5 1137.38 154.927   2
   6   8  -5 1287.50 151.972   2
  -6   8   4 3420.69 272.451   4
  -6   8   4 2932.58 219.954   2
   6   8  -4 3261.37 241.045   2
  -6   8   3 2088.22 179.768   2
   6   8  -3 2039.99 203.280   2
  -6   8   3 1952.16 215.444   4
  -6   8   2 3913.40 301.055   4
   6   8  -2 3656.67 268.894   2
  -6   8   2 3532.31 262.394   6
  -6   8   1 1853.96 214.450   4
  -6   8   1 1520.49 178.832   6
   6   8  -1 1336.26 184.154   2
  -6   8   0 7977.35 442.721   4
   6   8   0 7076.23 392.363   2
  -6   8   0 7657.69 376.317   6
  -6   8  -1 487.330 151.173   4
  -6   8  -1 409.936 108.672   6
   6   8   1 468.084 128.825   2
  -6   8  -2 2313.73 255.650   4
  -6   8  -2 1935.77 197.978   6
   6   8   2 1895.09 230.967   2
  -6   8  -3 594.947 142.778   4
  -6   8  -3 587.258 133.270   6
   6   8   3 977.265 178.112   2
  -6   8  -4 675.877 149.889   4
  -6   8  -4 575.568 126.373   6
   6   8   4 672.026 155.984   2
  -6   8  -5 80.5973 103.889   4
  -6   8  -5 243.668 113.930   6
   6   8   5 269.253 117.920   2
  -6   8  -6 1329.12 208.750   6
  -6   8  -7 341.847 123.059   6
  -6   8  -8 405.314 145.447   6
  -6   9  10 1633.84 239.259   2
  -6   9   9 111.355 140.455   2
  -6   9   8 2494.78 258.087   2
  -6   9   7 395.806 135.036   2
  -6   9   6-85.0022 90.3283   2
  -6   9   5 617.368 143.503   4
  -6   9   4 5102.10 366.310   4
  -6   9   3 2112.86 267.906   4
   6   9  -3 1920.69 216.402   2
   6   9  -2 4178.51 301.091   2
  -6   9   2 4375.72 341.941   4
  -6   9   2 3999.41 306.733   6
  -6   9   1 609.389 164.346   4
  -6   9   1 774.759 149.137   6
   6   9  -1 979.970 164.944   2
  -6   9   0 232.789 132.134   4
  -6   9   0 133.386 90.7549   6
   6   9   0-46.2324 136.004   2
  -6   9  -1 728.403 165.150   4
  -6   9  -1 298.327 109.413   6
   6   9   1 522.230 149.156   2
  -6   9  -2 2434.07 272.644   4
  -6   9  -2 2670.36 256.873   6
   6   9   2 2639.80 284.632   2
  -6   9  -3 208.871 125.329   6
   6   9   3 533.727 161.830   2
  -6   9  -4 1906.26 227.582   6
  -6  10   5 117.764 105.269   4
   6  10   0 3302.18 311.046   2
  -7  -9   8 16.2304 129.713   7
  -7  -9   7 276.546 156.997   7
  -7  -9   6 802.314 191.485   7
  -7  -9   5 386.461 173.240   7
  -7  -9   4 203.243 139.893   7
  -7  -9   4 275.818 134.953   5
  -7  -9   3 161.461 141.867   7
  -7  -9   3 70.1876 105.376   5
  -7  -9   2 233.607 130.750   7
  -7  -9   2 348.201 138.340   5
  -7  -9   1 530.095 180.005   7
  -7  -9   1 433.850 137.657   5
  -7  -9   0-51.2551 122.151   5
  -7  -9  -1 484.990 154.367   5
  -7  -9  -2 74.9463 109.071   5
  -7  -9  -3 484.940 171.170   5
  -7  -9  -4 14.2671 125.985   5
   7  -8 -13 273.035 152.857   7
   7  -8 -13 380.014 153.640   3
   7  -8 -12 805.336 185.432   7
   7  -8 -12 431.269 118.590   3
   7  -8 -11 880.078 192.113   7
   7  -8 -11 901.429 186.969   3
  -7  -8  11 821.351 182.523   5
   7  -8 -10 751.983 162.968   3
  -7  -8  10 572.660 159.246   5
   7  -8  -9-86.6163 114.467   3
  -7  -8   9 31.1821 108.728   5
   7  -8  -8 331.155 113.578   3
  -7  -8   8 691.143 172.617   5
  -7  -8   7 62.8720 100.809   7
   7  -8  -7 178.244 113.889   3
  -7  -8   7 127.352 104.450   5
   7  -8  -6 248.721 114.579   3
  -7  -8   6 233.926 115.769   7
  -7  -8   6 256.834 105.221   5
  -7  -8   5 693.192 166.188   7
   7  -8  -5 439.707 136.500   3
  -7  -8   5 734.174 168.037   5
  -7  -8   4 74.8144 111.624   7
   7  -8  -4 18.1256 104.201   3
  -7  -8   4 43.7587 95.4376   5
  -7  -8   3-158.336 131.598   7
   7  -8  -3 247.330 135.657   3
  -7  -8   3 135.546 94.4524   5
  -7  -8   2 790.956 168.083   7
   7  -8  -2 459.843 128.082   3
  -7  -8   2 555.816 155.257   5
  -7  -8   1 420.487 125.683   7
   7  -8  -1 363.183 131.647   3
  -7  -8   1 366.515 141.783   5
  -7  -8   0 157.490 113.238   7
   7  -8   0 10.3180 109.356   3
  -7  -8   0 30.4781 121.138   5
  -7  -8  -1 536.385 161.433   7
   7  -8   1 399.766 126.136   3
  -7  -8  -1 605.520 171.326   5
  -7  -8  -2 75.7003 113.559   7
   7  -8   2 59.3207 104.980   3
  -7  -8  -2 199.359 122.175   5
  -7  -8  -3 504.842 151.634   7
   7  -8   3 778.844 168.713   3
  -7  -8  -3 447.188 140.140   5
   7  -8   4 625.393 146.307   3
  -7  -8  -4 511.054 129.502   5
   7  -8   5 589.255 155.757   5
   7  -8   5 795.600 181.249   3
   7  -8   6 335.734 134.144   5
   7  -8   6 292.524 117.528   3
   7  -8   7 352.552 144.605   5
   7  -7 -16 1168.42 190.269   7
   7  -7 -15 66.9692 128.800   7
  -7  -7  15-17.2757 124.471   5
   7  -7 -14 623.959 172.418   7
   7  -7 -14 805.777 150.722   3
  -7  -7  14 483.966 148.450   5
  -7  -7  13 825.159 167.393   5
   7  -7 -13 817.460 187.119   7
   7  -7 -13 745.674 177.264   3
  -7  -7  12 275.962 125.151   5
   7  -7 -12 456.354 186.182   7
   7  -7 -12 345.736 122.230   3
   7  -7 -11 891.010 201.855   7
   7  -7 -11 513.745 136.999   3
  -7  -7  11 564.135 151.667   5
   7  -7 -10 528.168 133.902   3
  -7  -7  10 476.013 139.098   5
   7  -7  -9 605.367 147.038   3
  -7  -7   9 450.278 140.247   5
   7  -7  -8 3813.30 295.082   3
  -7  -7   8 4397.81 333.977   5
   7  -7  -7 1308.06 184.900   3
  -7  -7   7 1026.17 175.877   5
  -7  -7   6 984.981 159.928   7
   7  -7  -6 707.859 136.175   3
  -7  -7   6 1002.04 162.470   5
  -7  -7   5 137.168 106.025   7
   7  -7  -5-51.0476 99.9424   3
  -7  -7   5 165.688 111.336   5
  -7  -7   4 385.984 131.446   7
   7  -7  -4 527.112 152.141   3
  -7  -7   3 213.256 106.583   7
   7  -7  -3 287.421 127.671   3
  -7  -7   3 221.556 99.2306   5
  -7  -7   2 190.268 108.447   7
   7  -7  -2 179.607 97.7384   3
  -7  -7   2 255.502 109.271   5
  -7  -7   1 849.754 161.704   7
   7  -7  -1 943.012 164.349   3
  -7  -7   1 1071.06 167.137   5
  -7  -7   0 1421.74 204.788   7
   7  -7   0 1287.01 193.229   3
  -7  -7   0 1169.01 169.386   5
  -7  -7  -1 4160.24 325.915   7
   7  -7   1 4390.29 327.123   3
  -7  -7  -1 4094.90 291.907   5
   7  -7   2 365.445 114.574   3
  -7  -7  -2 579.913 155.520   7
  -7  -7  -2 575.960 132.438   5
  -7  -7  -3 445.295 144.239   7
   7  -7   3 410.244 110.167   3
  -7  -7  -3 685.070 135.306   5
  -7  -7  -4 414.427 143.248   7
   7  -7   4 663.350 141.736   3
  -7  -7  -4 463.160 115.263   5
  -7  -7  -5 382.781 137.811   7
   7  -7   5 240.314 104.313   3
  -7  -7  -5 453.082 109.080   5
   7  -7   6 697.948 150.717   5
  -7  -7  -6 365.676 139.374   7
   7  -7   6 817.936 165.296   3
   7  -7   7 565.001 138.806   5
   7  -7   7 516.340 147.252   3
   7  -7   8 44.6952 111.120   3
  -7  -6  18 2078.61 253.187   5
  -7  -6  17 712.183 185.915   5
   7  -6 -16 1368.17 201.700   7
  -7  -6  16 1915.67 239.843   5
   7  -6 -15 803.643 158.845   7
  -7  -6  15 831.693 169.566   5
   7  -6 -14 849.831 158.094   7
   7  -6 -14 450.999 105.968   3
  -7  -6  14 774.976 161.779   5
   7  -6 -13 644.071 162.928   7
   7  -6 -13 318.026 108.540   3
  -7  -6  13 652.939 161.382   5
   7  -6 -12 1035.88 189.017   7
   7  -6 -12 1023.06 155.853   3
  -7  -6  12 921.086 167.450   5
   7  -6 -11 1089.79 175.996   7
   7  -6 -11 802.009 146.030   3
  -7  -6  11 892.255 172.580   5
   7  -6 -10 4495.46 296.192   3
  -7  -6  10 4215.85 309.543   5
   7  -6  -9 160.888 77.9314   3
  -7  -6   9 274.553 108.838   5
   7  -6  -8 1374.93 171.518   3
  -7  -6   8 877.972 151.043   5
   7  -6  -7 135.012 93.9376   3
  -7  -6   7-87.1537 89.7938   5
  -7  -6   6 2007.36 191.635   7
   7  -6  -6 1856.87 193.135   3
  -7  -6   6 2060.13 214.893   5
  -7  -6   5 486.830 120.273   7
   7  -6  -5 660.910 128.709   3
  -7  -6   5 321.382 103.431   5
  -7  -6   4 189.094 84.4000   7
   7  -6  -4 274.834 95.4941   3
   7  -6  -4 312.466 72.7000   2
  -7  -6   4 186.810 78.3061   1
  -7  -6   4 272.072 100.743   5
  -7  -6   3 376.527 110.970   7
   7  -6  -3 197.581 86.1267   3
   7  -6  -3 333.580 83.0241   2
  -7  -6   3 228.640 102.146   5
  -7  -6   2 526.002 126.991   7
   7  -6  -2 535.971 121.459   3
   7  -6  -2 423.694 82.8176   2
  -7  -6   2 596.137 118.871   5
   7  -6  -1 1762.70 128.203   2
  -7  -6   1 1999.41 205.816   7
   7  -6  -1 2322.70 224.217   3
  -7  -6   1 1980.73 195.084   5
  -7  -6   0 30.4493 81.3193   7
   7  -6   0-42.6390 45.9133   2
   7  -6   0 98.5425 82.5855   3
  -7  -6   0 45.2851 71.9468   5
  -7  -6  -1 970.477 167.893   7
   7  -6   1 1369.26 180.687   3
  -7  -6  -1 1315.55 158.778   5
  -7  -6  -2 395.183 119.861   7
   7  -6   2 436.170 128.418   3
  -7  -6  -2 417.162 99.4400   5
  -7  -6  -3 3977.68 310.287   7
   7  -6   3 4712.40 312.913   3
  -7  -6  -3 4318.27 264.766   5
  -7  -6  -4 964.924 172.077   7
   7  -6   4 833.924 150.222   3
  -7  -6  -4 821.829 130.012   5
   7  -6   5 790.657 157.388   3
  -7  -6  -5 695.615 154.117   7
  -7  -6  -5 939.374 135.714   5
  -7  -6  -6 497.254 158.622   7
   7  -6   6 590.052 128.217   3
  -7  -6  -6 473.035 101.155   5
   7  -6   7 815.077 142.721   5
   7  -6   7 992.467 163.575   3
  -7  -6  -7 478.634 149.930   7
   7  -6   8 626.477 130.301   5
   7  -6   8 696.932 140.563   3
  -7  -6  -8 651.889 175.718   7
   7  -6   9 1719.30 205.807   3
  -7  -5  18 917.721 177.588   5
   7  -5 -17 773.375 148.424   7
  -7  -5  17 823.519 167.943   5
   7  -5 -16 767.640 149.081   7
  -7  -5  16 757.161 154.303   5
   7  -5 -15 693.172 137.557   7
   7  -5 -15 510.393 109.900   3
  -7  -5  15 700.133 142.850   5
   7  -5 -14 1792.50 202.353   7
   7  -5 -14 2217.27 193.063   3
  -7  -5  14 2032.64 223.384   5
   7  -5 -13 576.049 118.741   7
   7  -5 -13 458.455 103.732   3
  -7  -5  13 636.432 144.210   5
   7  -5 -12 3973.00 274.034   7
   7  -5 -12 4110.06 264.939   3
  -7  -5  12 4066.18 296.912   5
   7  -5 -11 790.865 143.029   7
   7  -5 -11 690.331 122.930   3
  -7  -5  11 643.146 134.902   5
   7  -5 -10 856.584 130.968   3
  -7  -5  10 798.505 146.375   5
   7  -5  -9 737.060 123.307   3
  -7  -5   9 554.672 133.192   5
   7  -5  -8 2856.73 225.027   3
  -7  -5   8 2482.92 224.564   5
   7  -5  -7 1900.78 192.087   3
  -7  -5   7 1847.91 194.311   5
  -7  -5   6 1466.23 153.706   7
   7  -5  -6 1579.29 175.796   3
  -7  -5   6 1102.84 155.903   5
  -7  -5   5 1227.54 147.619   7
   7  -5  -5 1321.23 160.063   3
  -7  -5   5 1183.05 153.879   5
   7  -5  -5 1392.45 140.808   2
   7  -5  -4 379.522 90.5724   2
  -7  -5   4 349.349 101.399   7
   7  -5  -4 521.508 115.319   3
  -7  -5   4 499.434 108.977   5
   7  -5  -3 429.658 81.3775   2
  -7  -5   3 333.048 83.3617   1
  -7  -5   3 403.576 104.044   7
   7  -5  -3 698.898 130.903   3
  -7  -5   3 471.430 105.765   5
  -7  -5   2 1215.44 142.848   1
  -7  -5   2 1267.66 154.367   7
   7  -5  -2 1412.15 160.405   3
   7  -5  -2 1570.40 124.986   2
  -7  -5   2 1282.96 147.754   5
  -7  -5   1 1603.70 171.533   7
   7  -5  -1 1211.64 108.849   2
   7  -5  -1 1404.46 162.594   3
  -7  -5   1 1407.46 156.155   5
  -7  -5   0 1672.46 182.014   7
   7  -5   0 2010.08 194.226   3
   7  -5   0 1754.68 112.039   2
  -7  -5   0 1520.72 158.601   5
   7  -5   1 2287.81 203.265   3
  -7  -5  -1 2653.48 225.841   7
   7  -5   1 2418.24 112.496   2
  -7  -5  -1 2407.14 187.090   5
  -7  -5  -2 322.943 112.859   7
   7  -5   2 506.538 111.497   3
   7  -5   2 454.450 42.6162   2
  -7  -5  -2 490.300 101.368   5
  -7  -5  -3 648.179 140.700   7
  -7  -5  -3 838.868 113.794   5
   7  -5   3 854.948 141.649   3
  -7  -5  -4 528.998 120.736   7
   7  -5   4 655.716 127.329   3
  -7  -5  -4 557.891 94.9271   5
   7  -5   5 4310.54 278.846   3
  -7  -5  -5 4178.93 310.753   7
  -7  -5  -5 4873.03 241.648   5
  -7  -5  -6 465.088 132.991   7
   7  -5   6 661.678 130.364   3
  -7  -5  -6 542.409 88.6187   5
  -7  -5  -7 1881.58 233.715   7
   7  -5   7 1981.68 198.112   3
   7  -5   7 1847.15 178.403   5
   7  -5   8 555.169 110.838   5
   7  -5   8 737.333 122.512   1
  -7  -5  -8 436.710 139.076   7
   7  -5   8 406.708 108.891   3
  -7  -5  -9 685.876 170.115   7
   7  -5   9 799.242 141.040   3
  -7  -5 -10 679.924 180.678   7
  -7  -4  18 1143.19 176.120   5
   7  -4 -17 493.331 115.536   7
  -7  -4  17 330.531 105.378   5
   7  -4 -16 1702.29 185.734   7
  -7  -4  16 1135.93 169.347   5
   7  -4 -15 278.691 87.3161   7
   7  -4 -15 343.592 80.5124   3
  -7  -4  15 248.494 106.608   5
   7  -4 -14 814.724 124.542   7
   7  -4 -14 736.083 111.136   3
  -7  -4  14 817.688 144.231   5
   7  -4 -13 766.139 124.297   7
   7  -4 -13 655.910 112.789   3
  -7  -4  13 726.788 139.134   5
   7  -4 -12 5647.53 292.026   7
   7  -4 -12 5508.00 278.868   3
  -7  -4  12 5405.52 319.460   5
   7  -4 -11 652.535 118.554   7
   7  -4 -11 727.643 117.270   3
  -7  -4  11 694.240 130.292   5
   7  -4 -10 960.590 128.205   3
  -7  -4  10 1124.61 161.971   5
   7  -4  -9 192.574 82.1225   3
  -7  -4   9 170.108 79.6547   5
   7  -4  -8 441.372 95.9182   3
  -7  -4   8 412.212 101.924   5
   7  -4  -7 119.094 74.8796   2
  -7  -4   7 252.960 76.1775   7
   7  -4  -7 322.663 91.1748   3
  -7  -4   7 184.583 76.6691   5
  -7  -4   6 1647.17 136.922   7
   7  -4  -6 1690.93 164.554   3
   7  -4  -6 1620.68 154.725   2
  -7  -4   6 1546.21 155.468   5
   7  -4  -5 1518.20 137.858   2
  -7  -4   5 1672.03 144.484   7
   7  -4  -5 1525.60 155.371   3
  -7  -4   5 1527.71 157.349   5
  -7  -4   4 3502.59 199.434   7
   7  -4  -4 3328.38 215.449   3
   7  -4  -4 3596.21 194.749   2
  -7  -4   4 3229.08 211.895   5
  -7  -4   3 3594.55 206.094   7
   7  -4  -3 3500.64 227.122   3
   7  -4  -3 3429.19 179.404   2
  -7  -4   3 3530.37 217.107   5
  -7  -4   2 1454.82 148.288   7
   7  -4  -2 1761.80 164.572   3
   7  -4  -2 1684.97 124.662   2
  -7  -4   2 1208.16 137.185   5
  -7  -4   1 1447.21 149.083   7
   7  -4  -1 1803.18 168.239   3
  -7  -4   1 1654.00 145.571   1
   7  -4  -1 1517.16 110.961   2
  -7  -4   1 1355.53 134.941   5
   7  -4   0 219.268 54.6741   2
  -7  -4   0 283.463 89.7902   7
   7  -4   0 242.279 75.0116   3
  -7  -4   0 210.828 74.4466   5
   7  -4   1 565.490 65.3577   2
  -7  -4  -1 602.203 114.297   7
   7  -4   1 449.967 101.305   3
  -7  -4  -1 701.754 105.208   5
   7  -4   2 145.367 43.9688   2
  -7  -4  -2 154.703 90.0254   7
  -7  -4  -2 56.2853 55.7241   5
   7  -4   2 90.9673 77.0461   3
   7  -4   3 907.093 60.3036   2
   7  -4   3 1124.76 144.662   3
  -7  -4  -3 728.087 135.615   7
   7  -4   3 799.706 57.7355   2
  -7  -4  -3 1062.03 111.261   5
   7  -4   4 478.702 42.9795   2
  -7  -4  -4 592.811 124.458   7
   7  -4   4 557.750 43.5432   2
   7  -4   4 749.416 116.912   3
  -7  -4  -4 691.353 91.3358   5
  -7  -4  -5 5334.87 333.693   7
   7  -4   5 5775.70 295.089   3
  -7  -4  -5 5718.84 227.567   5
  -7  -4  -6 755.516 141.940   7
   7  -4   6 781.626 120.650   3
  -7  -4  -6 775.300 86.9539   5
   7  -4   7 717.072 99.9709   5
  -7  -4  -7 822.810 159.462   7
   7  -4   7 695.447 121.564   3
  -7  -4  -7 874.884 79.5836   5
   7  -4   8 326.398 77.1736   5
  -7  -4  -8 197.681 100.434   7
   7  -4   8 192.389 84.2841   3
   7  -4   8 373.852 93.6276   1
   7  -4   9 1402.63 158.060   3
  -7  -4  -9 1337.57 204.511   7
   7  -4   9 1502.91 152.864   1
   7  -4  10 580.303 114.603   1
  -7  -4 -10 375.395 132.461   7
  -7  -4 -11 1471.65 234.072   7
  -7  -3  18 395.547 120.587   5
   7  -3 -17 239.861 85.7733   7
  -7  -3  17 115.020 90.0782   5
   7  -3 -16 1401.71 148.721   7
   7  -3 -16 1370.50 126.511   3
  -7  -3  16 1372.98 172.576   5
   7  -3 -15 222.228 66.8910   7
   7  -3 -15 271.852 69.9074   3
  -7  -3  15 67.8219 68.2673   5
   7  -3 -14 7078.82 296.482   7
   7  -3 -14 6815.40 287.762   3
  -7  -3  14 7220.95 351.651   5
  -7  -3  13 606.795 61.6326   7
   7  -3 -13 556.792 96.7015   7
   7  -3 -13 443.206 89.2925   3
  -7  -3  13 579.920 115.901   5
   7  -3 -12 1408.78 135.931   7
  -7  -3  12 1546.54 90.7494   7
   7  -3 -12 1233.10 130.230   3
  -7  -3  12 1546.96 166.573   5
   7  -3 -11 1416.59 143.128   7
   7  -3 -11 1629.71 150.610   3
  -7  -3  11 1531.72 161.555   5
   7  -3 -10 3010.78 193.136   3
  -7  -3  10 3102.38 220.507   5
   7  -3  -9 739.163 103.714   3
  -7  -3   9 589.146 107.636   5
   7  -3  -8 675.154 113.684   2
  -7  -3   8 606.188 70.0317   7
   7  -3  -8 493.865 98.0301   5
   7  -3  -8 510.473 92.6879   3
  -7  -3   8 748.081 115.655   5
  -7  -3   7 1810.50 114.727   7
   7  -3  -7 1893.76 164.167   5
   7  -3  -7 2024.65 160.417   3
   7  -3  -7 1842.70 159.298   2
  -7  -3   7 2037.94 169.147   5
   7  -3  -6 1613.72 148.185   5
   7  -3  -6 1695.50 147.326   3
  -7  -3   6 1616.18 114.896   7
  -7  -3   6 1613.87 153.191   5
   7  -3  -6 1784.44 146.057   2
   7  -3  -5 672.033 99.7348   2
  -7  -3   5 539.448 73.3401   7
   7  -3  -5 640.043 100.440   5
   7  -3  -5 535.253 92.5518   3
  -7  -3   5 427.461 91.1207   5
  -7  -3   4 1164.61 104.407   7
   7  -3  -4 1295.12 134.664   5
   7  -3  -4 1404.13 133.995   3
  -7  -3   4 1259.41 125.156   5
   7  -3  -4 1325.69 114.341   2
  -7  -3   3 1194.56 112.120   7
   7  -3  -3 1243.86 131.241   3
   7  -3  -3 1177.78 125.777   5
  -7  -3   3 1288.72 127.192   5
   7  -3  -3 1258.90 110.123   2
  -7  -3   2 622.711 92.3857   7
   7  -3  -2 560.761 79.8458   2
   7  -3  -2 662.555 96.0470   5
   7  -3  -2 611.888 95.1304   3
  -7  -3   2 676.432 95.2009   5
   7  -3  -1 1568.96 110.410   2
  -7  -3   1 1635.78 140.968   7
   7  -3  -1 1678.71 148.507   3
  -7  -3   1 1623.66 132.918   5
   7  -3   0 1757.90 145.164   4
   7  -3   0 1840.44 111.076   2
  -7  -3   0 1893.28 154.775   7
   7  -3   0 2014.98 159.377   3
  -7  -3   0 1752.69 137.166   5
   7  -3   1 799.115 115.214   4
  -7  -3  -1 602.229 109.846   7
   7  -3   1 572.801 95.4125   3
   7  -3   1 743.407 72.4574   2
  -7  -3  -1 838.842 95.7748   5
   7  -3   2 700.316 108.703   4
   7  -3   2 614.751 99.9058   3
   7  -3   2 572.118 78.3119   6
  -7  -3  -2 890.184 132.651   7
  -7  -3  -2 476.828 73.3495   5
   7  -3   2 509.445 62.4103   2
   7  -3   3 3306.04 131.974   2
   7  -3   3 3266.32 176.167   6
   7  -3   3 3467.54 207.782   3
  -7  -3  -3 3496.32 163.283   5
  -7  -3  -3 3275.66 230.290   7
   7  -3   4 1386.08 87.9014   2
   7  -3   4 1584.75 131.268   6
   7  -3   4 1560.02 144.311   3
  -7  -3  -4 1591.29 175.636   7
  -7  -3  -4 1605.78 110.830   5
   7  -3   5 1309.13 92.6334   2
  -7  -3  -5 1142.10 159.670   7
   7  -3   5 1155.38 129.301   6
   7  -3   5 1313.21 136.876   3
  -7  -3  -5 1305.81 90.6326   5
  -7  -3  -6 562.293 130.322   7
   7  -3   6 513.988 94.3641   3
   7  -3   6 511.201 64.4875   2
  -7  -3  -6 415.514 47.3018   5
  -7  -3  -7 6754.50 372.976   7
   7  -3   7 7403.21 297.764   3
   7  -3   7 7344.58 315.636   1
   7  -3   7 6386.75 241.399   5
   7  -3   7 7390.38 216.856   2
   7  -3   7 6893.26 240.650   5
  -7  -3  -8 85.1197 90.7578   7
   7  -3   8 283.248 82.6981   3
   7  -3   8 91.2772 65.7634   1
   7  -3   8 294.522 64.4035   5
  -7  -3  -9 1388.94 199.260   7
   7  -3   9 1612.11 167.401   1
   7  -3   9 1518.11 140.777   3
  -7  -3 -10 248.786 134.520   7
   7  -3  10 301.940 93.6214   1
  -7  -3 -11 341.028 144.161   7
   7  -3  11 399.004 100.736   1
  -7  -3 -12 425.989 152.297   7
  -7  -2  18 1883.42 202.872   5
  -7  -2  17 540.649 114.114   5
   7  -2 -17 565.040 96.2438   7
   7  -2 -16 2573.19 167.176   3
  -7  -2  16 2464.18 213.644   5
   7  -2 -16 3016.50 182.793   7
   7  -2 -15 461.032 76.0504   7
  -7  -2  15 263.083 82.1828   5
   7  -2 -15 313.844 69.6662   3
   7  -2 -14 376.171 69.3052   7
  -7  -2  14 214.884 36.2782   7
  -7  -2  14 213.132 75.5175   5
   7  -2 -14 247.213 68.7291   3
  -7  -2  13 1352.37 65.2733   7
   7  -2 -13 1884.93 129.388   7
   7  -2 -13 1752.00 142.340   3
  -7  -2  13 1863.45 175.477   5
  -7  -2  12 5423.81 110.138   7
   7  -2 -12 7292.68 241.311   7
  -7  -2  12 7135.09 317.291   5
   7  -2 -12 7051.10 272.611   3
  -7  -2  11 696.718 35.6341   7
   7  -2 -11 1024.29 100.308   7
   7  -2 -11 1079.43 138.991   5
  -7  -2  11 1122.07 132.367   5
   7  -2 -11 975.062 109.083   3
   7  -2 -10 1665.54 122.622   7
  -7  -2  10 1841.14 159.442   6
   7  -2 -10 1725.32 155.457   5
  -7  -2  10 1923.79 160.059   5
   7  -2 -10 1910.83 143.494   3
   7  -2  -9 963.012 126.706   2
   7  -2  -9 747.305 106.840   5
  -7  -2   9 861.745 112.742   5
  -7  -2   9 582.190 38.8990   7
   7  -2  -9 739.587 97.5242   3
  -7  -2   8 671.628 45.2084   7
   7  -2  -8 807.052 110.654   2
   7  -2  -8 789.380 111.455   5
  -7  -2   8 646.558 98.5559   5
   7  -2  -8 727.452 89.3669   3
  -7  -2   7 110.948 29.9085   7
   7  -2  -7 71.2293 55.8187   2
   7  -2  -7 125.473 59.9648   5
  -7  -2   7 83.8858 57.5960   5
   7  -2  -7 153.575 58.8335   3
  -7  -2   6 1805.77 90.3980   7
   7  -2  -6 1806.94 143.419   5
  -7  -2   6 1935.48 148.930   5
   7  -2  -6 1685.92 136.871   3
   7  -2  -6 1747.46 136.716   2
  -7  -2   5 337.956 49.7774   7
   7  -2  -5 358.272 71.8353   2
   7  -2  -5 326.806 78.5563   5
  -7  -2   5 372.291 76.5165   5
   7  -2  -5 316.211 70.4295   3
   7  -2  -4 130.673 56.2701   2
   7  -2  -4 178.710 65.1885   5
  -7  -2   4 138.968 47.1869   7
  -7  -2   4 133.211 58.8830   5
   7  -2  -4 151.559 58.8942   3
   7  -2  -3 154.471 54.4064   2
   7  -2  -3 97.6065 39.2098   4
  -7  -2   3 142.464 54.5189   7
   7  -2  -3 115.795 52.5114   5
  -7  -2   3 145.825 56.2987   5
   7  -2  -3 254.232 65.0643   3
  -7  -2   2 318.833 65.2290   7
   7  -2  -2 414.607 71.5795   5
   7  -2  -2 307.544 58.5095   4
  -7  -2   2 382.622 63.3874   5
   7  -2  -2 440.353 67.5753   2
   7  -2  -2 405.857 75.2986   3
   7  -2  -1 1936.13 124.400   4
  -7  -2   1 2146.63 140.045   7
   7  -2  -1 1896.12 132.490   5
   7  -2  -1 2051.77 145.836   3
  -7  -2   1 1890.30 127.467   5
   7  -2   0 61.0139 49.0368   4
  -7  -2   0 62.8324 46.6850   7
   7  -2   0 69.7046 31.6396   6
   7  -2   0 57.8374 42.6998   5
  -7  -2   0 26.3635 39.1610   5
   7  -2   0 89.2657 57.1684   3
   7  -2   1 742.779 93.7751   4
  -7  -2  -1 634.918 100.239   7
   7  -2   1 704.679 67.0216   6
   7  -2   1 702.258 82.2384   5
   7  -2   1 546.963 83.9353   3
  -7  -2  -1 747.458 78.4830   5
   7  -2   2 1094.37 122.101   4
  -7  -2  -2 756.250 111.275   7
   7  -2   2 962.317 118.563   7
   7  -2   2 727.709 76.4070   6
   7  -2   2 821.085 86.2212   5
   7  -2   2 786.150 94.2072   3
  -7  -2  -2 746.309 76.2240   5
   7  -2   3 1692.52 153.193   4
   7  -2   3 1886.07 115.561   2
   7  -2   3 1666.44 121.516   6
   7  -2   3 1784.49 138.894   3
  -7  -2  -3 1567.43 153.993   7
   7  -2   3 1883.30 123.958   5
  -7  -2  -3 1791.03 102.004   5
  -7  -2  -4 922.151 137.511   7
   7  -2   4 975.543 88.7688   2
   7  -2   4 893.482 98.1185   6
   7  -2   4 1006.23 91.4542   5
  -7  -2  -4 1062.51 72.7357   5
   7  -2   4 980.619 110.961   3
   7  -2   5 7340.07 238.634   2
  -7  -2  -5 7612.74 351.150   7
   7  -2   5 7517.13 291.954   6
   7  -2   5 7816.47 275.835   3
   7  -2   5 7284.61 222.255   5
  -7  -2  -5 6100.40 138.158   5
   7  -2   6 1841.94 133.727   2
  -7  -2  -6 1705.68 187.763   7
   7  -2   6 1789.61 135.562   3
   7  -2   6 1797.05 162.255   1
   7  -2   6 1870.66 111.501   5
   7  -2   7 271.785 44.2795   5
  -7  -2  -7 231.049 97.0835   7
   7  -2   7 277.423 63.3247   3
   7  -2   7 273.894 46.6366   5
   7  -2   7 368.387 75.8758   2
   7  -2   7 216.620 71.4754   1
  -7  -2  -8 403.257 120.314   7
   7  -2   8 334.640 64.1971   3
   7  -2   8 376.197 90.2656   1
   7  -2   8 531.314 85.0766   2
   7  -2   8 348.340 40.4337   5
  -7  -2  -9 3058.64 272.553   7
   7  -2   9 2922.38 227.312   1
   7  -2   9 3368.38 199.924   2
  -7  -2 -10 1098.84 185.227   7
   7  -2  10 761.007 130.960   1
   7  -2  11 2060.37 208.944   1
  -7  -2 -11 2363.59 267.969   7
   7  -2  12 214.721 98.2249   1
  -7  -2 -12 223.745 106.130   7
  -7  -1  18 1255.73 156.589   5
  -7  -1  17 1064.30 145.381   5
   7  -1 -17 1130.21 109.847   3
   7  -1 -16 1705.00 132.610   3
  -7  -1  16 1348.14 153.600   5
   7  -1 -15 891.219 85.1190   7
  -7  -1  15 797.130 127.780   5
   7  -1 -15 979.904 107.278   3
   7  -1 -14 2015.95 117.207   7
  -7  -1  14 1980.55 177.416   5
   7  -1 -14 1910.23 142.313   3
   7  -1 -13 901.577 99.6470   3
   7  -1 -13 978.445 76.7633   7
  -7  -1  13 999.431 129.316   5
   7  -1 -12 1410.63 86.4163   7
  -7  -1  12 1314.63 138.802   5
   7  -1 -12 1329.86 140.511   5
   7  -1 -12 1375.49 122.591   3
  -7  -1  11 1957.24 160.467   6
  -7  -1  11 1473.42 143.244   5
   7  -1 -11 1744.72 160.144   5
   7  -1 -11 1638.06 130.513   3
   7  -1 -11 1733.97 90.2199   7
   7  -1 -10 607.589 84.1452   3
   7  -1 -10 648.059 58.9173   7
  -7  -1  10 565.944 93.9102   6
   7  -1 -10 467.318 104.130   2
  -7  -1  10 422.278 89.9274   5
   7  -1 -10 627.005 100.433   5
   7  -1  -9 1098.83 126.412   2
   7  -1  -9 944.493 69.6846   7
  -7  -1   9 1103.92 108.132   6
   7  -1  -9 1039.54 115.222   5
  -7  -1   9 998.892 114.678   5
   7  -1  -9 1100.02 106.515   3
   7  -1  -8 11204.5 335.993   5
  -7  -1   8 11490.5 304.512   6
  -7  -1   8 11370.7 340.556   5
   7  -1  -8 10859.7 310.379   3
   7  -1  -8 11592.3 351.680   2
   7  -1  -7 369.368 72.0961   3
   7  -1  -7 321.907 72.6869   2
   7  -1  -7 299.830 70.7607   5
  -7  -1   7 275.775 65.7703   5
   7  -1  -6 124.358 48.0905   3
  -7  -1   6 97.6184 22.8098   7
   7  -1  -6 113.586 51.2930   2
   7  -1  -6 162.084 59.3420   5
  -7  -1   6 194.404 62.6243   5
   7  -1  -5 351.987 69.5483   3
   7  -1  -5 341.391 29.5988   4
  -7  -1   5 444.316 45.1964   7
   7  -1  -5 371.995 71.1195   5
  -7  -1   5 353.398 66.9024   5
   7  -1  -5 343.453 67.2780   2
   7  -1  -4 535.343 76.4600   3
   7  -1  -4 544.487 46.3206   4
  -7  -1   4 477.858 55.8901   7
   7  -1  -4 641.179 82.8530   5
  -7  -1   4 495.139 73.3672   5
   7  -1  -4 576.797 80.6144   2
   7  -1  -3 495.775 77.2197   3
   7  -1  -3 515.237 53.9807   4
  -7  -1   3 521.137 64.2132   7
   7  -1  -3 633.239 81.0244   5
  -7  -1   3 521.175 72.6167   5
   7  -1  -2 487.186 74.8705   3
  -7  -1   2 294.761 60.3653   7
   7  -1  -2 430.698 60.8797   4
   7  -1  -2 431.047 68.1704   5
  -7  -1   2 383.090 64.3739   5
   7  -1  -1 166.128 53.6990   3
   7  -1  -1 131.398 46.5295   4
   7  -1  -1 88.6019 50.3392   7
  -7  -1   1 145.675 54.8922   7
   7  -1  -1 173.289 28.4943   6
   7  -1  -1 167.580 54.6624   5
  -7  -1   1 161.193 45.3079   5
   7  -1   0 309.609 68.1677   3
   7  -1   0 302.628 61.4475   4
   7  -1   0 322.284 69.8651   7
   7  -1   0 306.476 42.2108   6
  -7  -1   0 380.007 75.3287   7
   7  -1   0 351.421 63.8550   5
  -7  -1   0 271.162 52.8035   5
  -7  -1  -1 11236.5 335.131   7
   7  -1   1 11354.2 340.030   7
   7  -1   1 10782.7 309.848   4
   7  -1   1 11439.7 243.083   6
   7  -1   1 10859.3 262.031   5
  -7  -1  -1 11566.6 250.630   5
   7  -1   1 11247.9 303.173   3
   7  -1   2 1134.73 117.712   4
   7  -1   2 895.576 90.4841   2
   7  -1   2 997.486 117.463   7
  -7  -1  -2 1058.19 77.1795   5
   7  -1   2 1072.14 84.4342   5
   7  -1   2 1064.07 87.7217   6
  -7  -1  -2 881.494 110.104   7
   7  -1   2 914.717 93.1112   3
   7  -1   3 852.980 108.949   4
  -7  -1  -3 695.539 115.033   7
   7  -1   3 847.058 112.918   7
   7  -1   3 735.688 84.9290   2
   7  -1   3 593.759 78.7686   6
  -7  -1  -3 626.097 54.9159   5
   7  -1   3 737.040 68.3208   5
   7  -1   3 767.901 86.2883   3
   7  -1   4 1874.94 131.741   2
  -7  -1  -4 1656.46 166.056   7
   7  -1   4 1456.59 123.949   6
   7  -1   4 1758.48 123.791   3
   7  -1   4 1725.75 152.187   1
   7  -1   4 1649.20 89.7119   5
   7  -1   5 1220.51 120.799   2
  -7  -1  -5 1438.76 156.963   7
   7  -1   5 1386.31 132.383   6
   7  -1   5 1374.03 112.215   3
   7  -1   5 1351.80 139.211   1
   7  -1   5 1195.55 69.1999   5
   7  -1   6 813.114 119.339   1
   7  -1   6 1019.28 113.901   2
  -7  -1  -6 1005.79 149.615   7
   7  -1   6 765.531 45.4936   5
   7  -1   6 960.773 92.7718   3
   7  -1   6 653.893 41.2668   5
   7  -1   7 1963.88 178.620   1
   7  -1   7 2246.42 167.065   2
  -7  -1  -7 2120.82 203.804   7
   7  -1   7 1981.90 122.271   3
  -7  -1  -8 826.227 147.547   7
   7  -1   8 872.372 77.1645   3
   7  -1   8 987.340 129.730   2
   7  -1   8 949.675 140.774   1
   7  -1   9 2280.08 210.167   1
  -7  -1  -9 2229.37 230.942   7
   7  -1   9 2258.29 181.026   2
   7  -1  10 1251.89 169.638   1
   7  -1  10 1355.07 152.836   2
   7  -1  11 1907.56 179.644   2
   7  -1  11 1927.06 203.334   1
   7  -1  12 742.522 153.080   1
   7  -1  13 1358.80 199.605   1
  -7   0  21 888.537 164.538   2
  -7   0  20 721.369 170.234   2
  -7   0  19 711.696 148.559   2
   7   0 -18 1677.10 152.450   4
  -7   0  18 1488.26 170.468   5
  -7   0  18 1873.40 215.465   2
   7   0 -17 568.862 84.2015   3
   7   0 -17 671.335 97.8818   4
  -7   0  17 470.276 101.401   5
  -7   0  17 820.786 143.303   2
   7   0 -16 4277.06 213.916   4
  -7   0  16 4616.76 299.076   2
  -7   0  16 4019.02 252.209   5
   7   0 -16 4142.38 203.540   3
   7   0 -15 949.966 106.241   3
   7   0 -15 994.701 99.5079   4
  -7   0  15 976.194 127.374   5
   7   0 -15 1221.27 131.212   1
  -7   0  15 951.596 138.406   2
   7   0 -14 259.523 70.8277   3
   7   0 -14 191.073 55.1482   4
  -7   0  14 239.835 78.8720   5
  -7   0  14 234.823 90.6423   2
   7   0 -13 884.011 101.849   3
   7   0 -13 738.604 78.5410   4
  -7   0  13 812.685 117.272   5
  -7   0  13 754.958 128.456   2
   7   0 -12 73.2831 57.0617   3
   7   0 -12 43.0296 38.9891   4
  -7   0  12 189.113 76.8016   6
  -7   0  12 126.543 65.1434   5
   7   0 -12-18.2490 61.1710   5
  -7   0  12 34.1026 73.2162   2
   7   0 -11 2835.17 113.317   4
  -7   0  11 2716.73 190.075   2
  -7   0  11 2553.71 176.156   6
  -7   0  11 2627.23 181.604   5
   7   0 -11 2530.99 178.138   5
   7   0 -11 2470.52 188.456   2
   7   0 -11 2783.94 164.332   3
  -7   0  10 9252.43 329.190   2
   7   0 -10 9552.41 179.670   4
   7   0 -10 9425.65 293.166   3
   7   0 -10 9278.61 290.932   6
  -7   0  10 9383.65 303.916   6
  -7   0  10 9260.61 324.070   5
   7   0 -10 9468.97 326.824   5
   7   0 -10 9362.24 332.215   2
   7   0  -9 865.714 49.0525   4
   7   0  -9 809.156 85.7131   6
   7   0  -9 820.647 105.001   2
  -7   0   9 893.171 93.6474   6
  -7   0   9 819.154 105.423   5
   7   0  -9 881.595 105.353   5
   7   0  -8 412.068 30.9117   4
   7   0  -8 515.367 67.2216   6
  -7   0   8 470.851 68.2604   6
   7   0  -8 462.929 80.5210   2
  -7   0   8 454.307 78.3584   5
   7   0  -8 422.599 77.2411   5
   7   0  -7 296.537 27.8253   4
   7   0  -7 422.226 55.5486   6
  -7   0   7 414.840 59.0907   6
  -7   0   7 567.465 87.1537   5
   7   0  -7 403.567 77.0632   2
   7   0  -7 507.166 81.9115   5
   7   0  -6 9803.89 156.224   7
   7   0  -6 10269.5 299.154   5
   7   0  -6 10155.9 294.036   2
   7   0  -6 9814.31 203.629   6
  -7   0   6 9944.16 298.454   5
   7   0  -5 496.593 40.2745   4
   7   0  -5 435.027 44.9027   6
   7   0  -5 450.681 46.9516   7
  -7   0   5 489.346 75.5011   5
   7   0  -5 448.109 75.3268   5
   7   0  -4 762.313 56.6726   4
   7   0  -4 889.448 88.5007   3
   7   0  -4 887.894 69.3616   7
   7   0  -4 771.957 50.9885   6
  -7   0   4 883.163 92.3011   5
   7   0  -4 958.335 94.6449   5
   7   0  -3 814.139 66.9825   4
   7   0  -3 965.004 92.2573   3
   7   0  -3 725.126 72.1951   7
  -7   0   3 977.760 93.7289   5
   7   0  -3 905.215 87.1507   5
   7   0  -2 481.308 72.5801   3
   7   0  -2 480.372 62.2509   4
   7   0  -2 380.450 63.5559   7
  -7   0   2 538.974 72.6869   5
   7   0  -2 370.546 62.0777   5
  -7   0   1 10171.7 268.576   4
   7   0  -1 10230.9 259.925   4
   7   0  -1 10073.3 275.799   7
  -7   0   1 10308.6 257.618   5
   7   0  -1 9920.38 246.220   5
   7   0  -1 9952.82 274.320   3
   7   0   0 544.107 75.3125   3
  -7   0   0 479.184 74.9205   4
   7   0   0 602.198 79.4477   4
   7   0   0 427.838 77.2461   7
  -7   0   0 565.705 67.5538   5
   7   0   0 437.986 59.6414   5
   7   0   1 568.617 70.2181   3
  -7   0  -1 508.051 82.8174   4
   7   0   1 354.001 69.9851   4
   7   0   1 474.930 74.3857   2
   7   0   1 618.868 91.2616   7
  -7   0  -1 482.797 61.3192   5
   7   0   1 544.194 60.4720   5
   7   0   2 844.550 81.5721   3
  -7   0  -2 992.035 114.599   4
   7   0   2 921.741 106.684   4
   7   0   2 875.021 107.606   7
   7   0   2 953.323 109.369   1
   7   0   2 999.564 70.0011   5
   7   0   2 1005.76 100.545   2
  -7   0  -3 8877.21 328.878   4
   7   0   3 8887.95 319.213   4
   7   0   3 9097.99 287.172   2
   7   0   3 8521.44 324.482   7
   7   0   3 8873.43 313.063   1
   7   0   3 8603.89 179.008   5
   7   0   3 9084.31 252.788   3
  -7   0  -4 2876.59 202.645   4
   7   0   4 2835.00 174.786   2
   7   0   4 2692.06 174.017   6
   7   0   4 2844.10 191.012   1
   7   0   4 2883.10 144.103   3
   7   0   4 2238.41 80.3185   5
  -7   0  -5 80.3057 64.5157   4
   7   0   5 75.2490 70.0198   1
   7   0   5 91.8557 68.5794   6
   7   0   5 43.9869 65.3775   2
   7   0   5 139.857 50.2003   3
   7   0   6 985.041 137.527   1
  -7   0  -6 1043.31 153.720   4
   7   0   6 793.547 113.087   2
   7   0   6 774.239 74.3258   3
  -7   0  -7 210.415 85.6916   4
   7   0   7 215.547 83.4996   2
   7   0   7 155.505 38.7187   3
   7   0   7 321.023 89.3708   1
  -7   0  -8 942.448 151.714   4
   7   0   8 1275.99 162.779   1
   7   0   8 759.922 54.7953   3
   7   0   8 1119.95 142.910   2
  -7   0  -9 4306.26 305.626   4
   7   0   9 4822.87 297.212   1
   7   0   9 5036.74 282.689   2
   7   0  10 951.065 159.816   1
  -7   0 -10 748.198 146.207   4
   7   0  10 894.925 140.101   2
   7   0  11 1714.11 207.307   1
  -7   0 -11 1882.97 229.810   4
   7   0  11 1913.60 198.605   2
   7   0  12 797.600 150.785   2
  -7   0 -12 565.848 153.153   4
   7   0  12 871.566 158.682   1
   7   0  13 869.772 176.362   1
  -7   1  21 304.741 128.827   2
  -7   1  20 1389.84 216.767   2
  -7   1  19 490.399 152.055   2
   7   1 -18 1622.19 164.941   4
  -7   1  18 1814.15 216.928   2
   7   1 -17 1337.60 144.968   4
  -7   1  17 903.461 135.064   5
  -7   1  17 1529.60 200.158   2
   7   1 -17 1373.06 128.058   3
   7   1 -16 2025.50 160.469   4
  -7   1  16 2183.18 225.435   2
  -7   1  16 1756.05 171.145   5
   7   1 -16 1994.93 152.049   3
   7   1 -15 1026.20 101.510   1
   7   1 -15 963.714 109.664   4
  -7   1  15 805.022 117.732   5
  -7   1  15 987.656 104.041   4
  -7   1  15 988.989 159.937   2
   7   1 -14 2284.04 139.740   1
   7   1 -14 2132.59 145.554   4
  -7   1  14 1921.25 126.636   4
   7   1 -14 2262.44 197.141   6
  -7   1  14 1941.64 171.926   5
  -7   1  14 1861.47 198.216   2
   7   1 -13 1044.02 100.782   4
  -7   1  13 816.856 78.1870   4
   7   1 -13 973.486 129.365   6
  -7   1  13 940.103 125.238   5
  -7   1  13 1081.57 147.831   2
   7   1 -12 1487.02 110.852   4
  -7   1  12 1054.17 80.0325   4
   7   1 -12 1304.41 141.208   2
   7   1 -12 1316.94 141.183   6
  -7   1  12 1172.62 134.678   6
  -7   1  12 1424.19 145.034   5
  -7   1  12 1314.09 157.365   2
   7   1 -12 1348.34 144.698   5
   7   1 -11 1838.57 112.615   4
  -7   1  11 1712.50 167.617   2
   7   1 -11 1653.84 144.988   6
  -7   1  11 1731.81 146.102   6
  -7   1  11 1740.42 149.830   5
   7   1 -11 1685.58 154.647   5
   7   1 -11 1865.06 161.767   2
   7   1 -10 687.914 69.5312   4
   7   1 -10 770.839 97.8803   6
  -7   1  10 679.812 96.5708   6
   7   1 -10 751.646 104.261   2
  -7   1  10 747.407 104.880   5
  -7   1  10 795.671 117.235   2
   7   1 -10 564.433 95.7704   5
   7   1  -9 1013.13 75.7525   4
   7   1  -9 973.646 100.330   6
  -7   1   9 841.170 93.2003   6
   7   1  -9 1072.82 113.734   2
  -7   1   9 966.978 112.668   5
  -7   1   9 891.964 116.847   2
   7   1  -9 957.525 106.935   5
   7   1  -8 10294.0 219.264   4
  -7   1   8 11124.7 262.356   6
   7   1  -8 11414.6 325.658   2
  -7   1   8 10914.3 343.434   2
   7   1  -8 11673.4 347.423   5
  -7   1   8 10765.1 336.313   5
   7   1  -8 11432.1 297.941   6
   7   1  -7 393.395 60.1103   6
  -7   1   7 329.740 48.8828   6
  -7   1   7 261.920 73.1034   5
   7   1  -7 333.812 71.1707   5
   7   1  -7 251.067 62.5434   2
  -7   1   6 174.505 34.1415   6
   7   1  -6 39.9478 32.9093   6
  -7   1   6 53.0703 52.8016   5
   7   1  -6 134.694 58.4207   5
  -7   1   5 236.362 25.1324   6
   7   1  -5 354.841 44.3143   7
   7   1  -5 294.048 49.3718   6
  -7   1   5 395.876 74.3907   5
   7   1  -5 477.148 78.2458   5
  -7   1   4 475.638 46.5037   4
   7   1  -4 491.277 55.6792   7
  -7   1   4 679.322 90.0928   5
   7   1  -4 667.303 81.4604   5
  -7   1   3 530.253 76.4491   3
  -7   1   3 483.590 54.7860   4
   7   1  -3 551.047 67.1416   7
  -7   1   3 508.972 75.2964   5
   7   1  -3 577.315 77.9742   5
  -7   1   2 372.729 73.1202   3
   7   1  -2 414.792 66.4057   4
  -7   1   2 447.031 61.0068   4
   7   1  -2 413.040 64.7402   7
  -7   1   2 401.640 69.0004   5
   7   1  -2 358.733 64.0835   5
  -7   1   1 190.465 52.0301   3
   7   1  -1 127.776 53.9622   4
  -7   1   1 151.418 48.9594   4
   7   1  -1 111.146 54.5476   7
   7   1  -1 66.4970 37.0195   5
  -7   1   0 401.107 69.3813   3
   7   1   0 368.054 74.2106   4
  -7   1   0 284.680 64.3713   4
   7   1   0 227.292 67.3933   2
   7   1   0 311.943 68.0568   7
   7   1   0 276.285 64.0098   1
   7   1   0 270.272 49.2281   5
   7   1   1 11267.6 331.202   4
  -7   1  -1 10930.0 320.973   4
   7   1   1 10853.9 318.277   2
   7   1   1 11252.8 337.899   7
   7   1   1 11001.2 329.658   1
   7   1   1 11151.6 241.041   5
  -7   1  -1 11275.5 300.963   3
  -7   1  -2 1190.69 104.091   3
  -7   1  -2 1232.68 124.580   4
   7   1   2 1077.49 117.253   2
   7   1   2 1119.40 117.924   4
   7   1   2 983.761 115.300   7
   7   1   2 1270.12 122.231   1
   7   1   2 964.311 72.1736   5
   7   1   2 1066.58 91.8570   3
   7   1   3 546.368 68.3469   3
  -7   1  -3 615.962 100.996   4
   7   1   3 487.815 97.6408   4
   7   1   3 429.840 84.5054   1
   7   1   3 516.802 102.257   7
   7   1   3 609.840 93.6330   2
   7   1   3 592.800 52.6249   5
  -7   1  -4 1603.06 155.339   4
   7   1   4 1718.46 149.735   2
   7   1   4 1718.68 159.505   1
   7   1   4 1620.56 105.097   3
  -7   1  -5 1467.19 159.987   4
   7   1   5 1439.56 145.989   2
   7   1   5 1471.66 154.676   1
   7   1   5 1337.50 91.9359   3
  -7   1  -6 1014.45 145.649   4
   7   1   6 856.206 129.959   1
   7   1   6 1181.28 144.200   2
   7   1   6 973.083 76.1145   3
  -7   1  -7 1999.74 199.405   4
   7   1   7 2167.34 199.142   1
   7   1   7 2146.40 193.626   2
   7   1   7 1585.65 85.9089   3
  -7   1  -8 1143.83 160.224   4
   7   1   8 707.608 132.186   1
   7   1   8 881.986 136.398   2
   7   1   9 1768.52 194.899   1
  -7   1  -9 1551.01 196.174   4
   7   1   9 2135.08 204.152   2
  -7   1 -10 1049.74 168.195   4
   7   1  10 1194.82 172.233   2
   7   1  10 1079.68 174.276   1
  -7   1 -11 1263.83 199.362   4
   7   1  11 1777.16 221.336   1
   7   1  11 1789.91 206.091   2
   7   1  12 702.328 144.941   2
  -7   1 -12 814.141 177.544   4
   7   1  12 1145.42 189.790   1
   7   1  13 1060.64 183.749   2
   7   1  14 185.093 123.552   2
  -7   2  20 54.8923 124.383   2
  -7   2  19 456.013 151.818   2
   7   2 -18 2567.24 208.857   4
  -7   2  18 2442.91 263.132   2
   7   2 -17 532.752 95.7822   4
  -7   2  17 704.341 163.715   2
   7   2 -16 3259.47 216.595   4
  -7   2  16 3274.72 277.414   2
   7   2 -16 3454.99 276.112   6
  -7   2  15 380.352 70.2424   4
   7   2 -15 562.622 102.347   4
   7   2 -15 407.231 113.932   6
  -7   2  15 409.876 130.310   2
   7   2 -14 273.789 67.1550   4
  -7   2  14 187.349 51.9409   4
   7   2 -14 240.003 89.9163   6
  -7   2  14 340.110 117.120   2
   7   2 -14 317.958 38.2289   1
  -7   2  13 1834.91 199.000   2
   7   2 -13 1793.34 141.378   4
  -7   2  13 1445.03 95.6762   4
   7   2 -13 1755.31 81.9317   1
   7   2 -13 1716.81 173.803   6
  -7   2  12 5980.75 166.277   4
   7   2 -12 7353.28 263.025   4
  -7   2  12 6971.53 339.776   2
  -7   2  12 7174.99 301.733   6
   7   2 -12 7503.40 325.939   6
   7   2 -12 7359.24 305.035   2
  -7   2  11 843.579 57.4813   4
   7   2 -11 960.758 99.1061   4
  -7   2  11 1059.19 118.106   6
   7   2 -11 1259.48 134.735   6
  -7   2  11 949.141 146.852   2
   7   2 -11 1151.94 127.171   2
  -7   2  10 1284.58 57.2411   4
   7   2 -10 1650.15 125.661   4
   7   2 -10 1701.60 141.929   2
  -7   2  10 1871.67 169.788   2
  -7   2  10 1597.68 127.760   6
   7   2 -10 1920.26 157.524   6
   7   2 -10 1808.26 161.769   5
   7   2  -9 828.656 90.9271   4
  -7   2   9 820.539 92.9449   6
   7   2  -9 823.005 103.943   6
  -7   2   9 931.005 127.752   2
   7   2  -9 787.305 96.9006   2
   7   2  -9 798.417 108.025   5
   7   2  -8 593.901 86.3983   2
  -7   2   8 693.350 92.1307   3
   7   2  -8 615.141 84.7341   6
  -7   2   8 661.268 73.3900   6
  -7   2   8 606.338 100.169   2
   7   2  -8 630.581 98.7738   5
  -7   2   7 82.0380 59.4623   3
  -7   2   7 107.744 37.6366   6
   7   2  -7 115.994 51.9441   6
  -7   2   7 105.343 64.5143   2
   7   2  -7 53.5546 52.7498   5
  -7   2   6 1731.36 63.2185   4
  -7   2   6 1880.29 144.423   2
  -7   2   6 1963.09 87.0172   6
   7   2  -6 1744.01 124.502   6
   7   2  -6 1906.51 142.611   5
  -7   2   6 1867.06 144.928   3
  -7   2   5 320.769 73.0421   3
  -7   2   5 341.216 39.8320   4
  -7   2   5 305.015 30.3806   6
   7   2  -5 350.155 73.7397   5
  -7   2   4 135.893 62.5652   3
  -7   2   4 134.022 36.3126   4
   7   2  -4 87.3185 42.0195   1
   7   2  -4 91.7558 51.1639   5
  -7   2   3 232.512 65.0064   3
  -7   2   3 216.761 51.4366   4
   7   2  -3 218.708 59.1328   7
   7   2  -3 124.980 49.6518   1
   7   2  -3 172.607 53.7747   5
   7   2  -2 390.147 67.2294   1
  -7   2   2 313.561 67.1681   3
  -7   2   2 336.208 61.9559   4
   7   2  -2 260.553 61.5976   7
   7   2  -2 339.894 63.8858   5
  -7   2   1 1538.19 115.336   4
   7   2  -1 1798.16 137.168   2
   7   2  -1 1765.55 137.000   7
   7   2  -1 1663.37 128.643   1
   7   2  -1 1769.60 123.053   5
  -7   2   1 1893.92 141.005   3
  -7   2   0 3.83744 53.9962   3
  -7   2   0 43.0415 52.2287   4
   7   2   0 52.1249 55.2390   2
   7   2   0 133.030 60.7126   1
   7   2   0 44.9498 54.5136   7
   7   2   0 38.2142 36.4123   5
   7   2   1 743.656 76.3617   5
   7   2   1 795.211 104.721   1
  -7   2  -1 729.804 89.7577   3
   7   2   1 687.175 98.1125   4
  -7   2  -1 716.689 94.7689   4
   7   2   1 660.799 98.8516   2
   7   2   1 714.492 104.960   7
   7   2   2 787.932 74.4085   5
  -7   2  -2 823.073 100.553   3
   7   2   2 645.127 98.3143   4
  -7   2  -2 965.235 117.228   4
   7   2   2 721.859 112.386   7
   7   2   2 661.781 99.0210   2
   7   2   2 811.523 115.268   1
  -7   2  -3 1839.28 159.830   4
   7   2   3 1888.21 161.200   2
   7   2   3 2124.48 176.822   1
  -7   2  -3 1874.97 141.541   3
  -7   2  -4 918.907 102.614   3
  -7   2  -4 1074.66 136.841   4
   7   2   4 1071.23 136.000   2
   7   2   4 866.663 134.190   1
  -7   2  -5 7355.68 336.054   4
   7   2   5 7216.14 339.188   1
   7   2   5 7298.10 326.615   2
  -7   2  -5 7419.26 269.533   3
   7   2   5 6824.55 211.697   3
   7   2   6 1535.33 176.021   1
  -7   2  -6 1690.61 179.320   4
   7   2   6 1629.86 101.968   3
   7   2   6 1771.67 177.509   2
   7   2   6 1609.09 101.224   3
  -7   2  -6 1833.64 136.343   3
   7   2   7 190.374 36.2607   3
   7   2   7 279.862 104.805   1
  -7   2  -7 331.604 69.7600   3
  -7   2  -7 460.023 117.845   4
   7   2   7 219.916 42.4399   3
   7   2   7 321.353 105.152   2
  -7   2  -8 470.806 125.410   4
   7   2   8 458.626 115.316   2
   7   2   8 588.456 131.604   1
  -7   2  -9 3022.76 262.331   4
   7   2   9 2780.34 253.280   1
   7   2   9 2911.42 253.740   2
  -7   2 -10 763.106 164.851   4
   7   2  10 833.240 166.417   1
   7   2  10 569.185 132.130   2
  -7   2 -11 2037.05 251.849   4
   7   2  11 2389.58 257.848   1
   7   2  11 2300.64 240.806   2
  -7   2 -12 181.398 121.293   4
   7   2  12 241.584 104.059   2
   7   2  13 296.990 136.123   2
   7   2  14 168.532 121.235   2
   7   3 -19 441.294 113.321   4
  -7   3  19 500.857 167.712   2
   7   3 -18 190.153 79.5594   4
   7   3 -18 490.831 129.866   6
  -7   3  18 420.816 140.308   2
   7   3 -17 110.296 93.1088   4
   7   3 -17 59.5027 99.4759   6
  -7   3  17 97.5388 113.637   2
   7   3 -16 1573.80 168.038   4
   7   3 -16 1378.14 188.494   6
  -7   3  16 1854.60 224.307   2
   7   3 -15 306.157 88.9965   4
   7   3 -15 329.777 112.827   6
  -7   3  15 375.409 124.186   2
  -7   3  14 6074.43 213.829   4
  -7   3  14 6781.29 380.932   2
   7   3 -14 7487.43 319.487   4
   7   3 -14 7081.28 363.911   6
  -7   3  13 466.337 63.1523   4
   7   3 -13 561.056 104.869   2
   7   3 -13 586.219 119.711   6
  -7   3  13 566.049 133.466   2
   7   3 -13 561.890 98.7121   4
  -7   3  12 1221.29 87.1986   4
   7   3 -12 1364.10 134.143   4
   7   3 -12 1255.28 130.781   2
   7   3 -12 1204.70 149.774   6
  -7   3  12 1297.27 177.441   2
  -7   3  11 1612.58 92.2900   4
   7   3 -11 1636.60 147.170   2
   7   3 -11 1613.33 149.663   4
  -7   3  11 1406.72 138.309   6
   7   3 -11 1713.14 168.381   6
  -7   3  11 1656.55 181.711   2
  -7   3  11 1576.53 145.725   3
  -7   3  10 3139.84 118.581   4
  -7   3  10 2784.71 218.863   2
   7   3 -10 3154.66 184.049   4
   7   3 -10 3154.87 184.098   2
   7   3 -10 3129.21 209.081   6
  -7   3  10 2994.07 196.509   3
  -7   3   9 657.841 110.425   3
  -7   3   9 568.942 55.8616   4
   7   3  -9 621.574 43.2695   1
   7   3  -9 565.128 97.3305   6
  -7   3   9 553.582 115.468   2
   7   3  -9 593.978 86.7781   2
  -7   3   8 749.760 108.393   3
   7   3  -8 785.904 57.3010   1
   7   3  -8 741.631 103.827   6
  -7   3   8 627.990 109.655   2
   7   3  -8 629.825 104.928   5
  -7   3   7 1648.65 92.4501   4
  -7   3   7 1999.03 163.017   2
   7   3  -7 1847.54 148.173   6
   7   3  -7 1924.67 97.3096   1
   7   3  -7 1700.70 150.527   5
  -7   3   7 1837.20 153.746   3
  -7   3   6 1404.82 90.1247   4
  -7   3   6 1355.48 131.859   2
   7   3  -6 1379.60 125.765   6
   7   3  -6 1549.70 98.9500   1
  -7   3   6 1636.08 145.068   3
   7   3  -6 1672.39 148.978   5
  -7   3   5 655.806 101.936   3
  -7   3   5 583.489 67.3706   4
   7   3  -5 679.540 76.1327   1
  -7   3   5 522.357 88.4096   2
   7   3  -5 609.495 98.1404   5
  -7   3   4 1179.74 127.236   3
   7   3  -4 1129.59 100.623   1
  -7   3   4 1272.02 95.1515   4
   7   3  -4 1149.69 119.709   5
  -7   3   3 1497.91 110.962   4
   7   3  -3 1304.28 112.307   1
  -7   3   3 1217.85 68.2920   6
  -7   3   3 1428.61 138.922   3
   7   3  -3 1215.71 119.395   5
   7   3  -2 626.615 89.7565   5
  -7   3   2 653.532 101.543   3
  -7   3   2 655.183 81.5623   4
  -7   3   2 682.443 54.9231   6
   7   3  -2 653.635 97.6979   2
   7   3  -2 740.881 95.6524   1
  -7   3   1 1985.33 139.704   4
   7   3  -1 1763.01 146.975   2
   7   3  -1 1690.13 139.645   1
   7   3  -1 1774.08 152.833   7
  -7   3   1 1833.48 92.9747   6
  -7   3   1 1792.44 149.932   3
   7   3  -1 1749.48 132.796   5
  -7   3   0 1960.12 147.387   4
  -7   3   0 2045.95 108.489   6
   7   3   0 1726.73 150.399   2
   7   3   0 1788.96 148.604   1
   7   3   0 1850.98 163.330   7
  -7   3   0 1842.80 153.226   3
   7   3   0 1706.30 129.516   5
  -7   3  -1 515.496 91.3545   3
   7   3   1 675.979 111.744   1
  -7   3  -1 777.968 104.835   4
   7   3   1 599.456 104.626   2
   7   3   1 440.803 97.4463   7
  -7   3  -1 699.736 74.5820   6
  -7   3  -2 627.694 101.123   3
   7   3   2 749.002 119.322   1
  -7   3  -2 612.375 110.877   4
   7   3   2 545.155 110.347   2
  -7   3  -2 534.849 76.4955   6
  -7   3  -3 3144.50 214.053   4
   7   3   3 3330.93 226.092   1
   7   3   3 3140.60 219.935   2
  -7   3  -3 3160.20 174.063   6
  -7   3  -3 3328.43 204.227   3
   7   3   4 1793.16 186.382   1
  -7   3  -4 1550.51 165.067   4
   7   3   4 1274.49 119.045   3
   7   3   4 1459.22 164.689   2
  -7   3  -4 1483.25 140.838   3
   7   3   5 1571.53 181.991   1
  -7   3  -5 1315.73 136.536   3
  -7   3  -5 1522.82 171.608   4
   7   3   5 1492.88 173.940   2
   7   3   5 1274.71 113.324   3
  -7   3  -6 657.105 101.319   3
  -7   3  -6 558.914 122.929   4
   7   3   6 457.353 69.8072   3
   7   3   6 481.484 113.240   2
   7   3   6 642.977 138.672   1
   7   3   7 7250.33 382.354   1
  -7   3  -7 7666.12 390.193   4
   7   3   7 7123.52 374.997   2
  -7   3  -7 7107.23 294.016   3
  -7   3  -8 258.954 107.216   4
   7   3   8 238.270 107.649   1
   7   3   8 179.312 83.7613   2
  -7   3  -9 1653.24 217.135   4
   7   3   9 1723.32 225.736   1
   7   3   9 1814.16 220.956   2
  -7   3 -10-8.97382 84.7629   4
   7   3  10-43.0793 105.639   2
  -7   3 -11 531.882 136.753   4
   7   3  11 437.784 147.718   2
   7   3  12 266.987 131.318   2
   7   3  13 2222.49 275.886   2
   7   4 -19 522.929 125.887   4
   7   4 -18 1522.76 186.683   4
   7   4 -18 1278.40 217.303   6
  -7   4  18 1117.50 205.187   2
   7   4 -17 540.118 125.750   4
   7   4 -17 555.271 142.707   6
  -7   4  17 548.134 156.190   2
   7   4 -16 1496.82 170.085   4
   7   4 -16 1546.29 205.936   6
  -7   4  16 1364.21 207.636   2
   7   4 -15 306.457 98.4560   4
   7   4 -15 209.154 87.0541   6
  -7   4  15 203.826 126.027   2
   7   4 -14 804.901 142.834   4
   7   4 -14 817.947 145.186   6
  -7   4  14 768.134 154.103   2
  -7   4  13 556.663 77.1656   4
   7   4 -13 613.292 112.610   4
   7   4 -13 493.733 91.9392   2
   7   4 -13 637.068 127.595   6
  -7   4  13 714.163 148.114   2
  -7   4  12 5074.77 198.298   4
   7   4 -12 4979.28 245.327   2
  -7   4  12 5600.69 334.736   2
   7   4 -12 5428.73 283.847   4
   7   4 -12 5837.18 320.992   6
  -7   4  11 810.726 86.9072   4
   7   4 -11 719.825 118.720   4
   7   4 -11 704.832 122.379   6
  -7   4  11 751.682 146.982   2
   7   4 -11 623.402 100.165   2
   7   4 -10 869.432 119.832   4
   7   4 -10 941.695 129.877   6
  -7   4  10 895.319 150.323   2
   7   4 -10 864.366 110.536   2
   7   4  -9 97.3417 74.0308   6
  -7   4   9 74.3862 81.6737   2
   7   4  -8 856.386 123.054   6
  -7   4   8 634.392 129.316   2
   7   4  -7 284.072 85.9964   6
  -7   4   7 327.855 89.5653   2
   7   4  -6 1372.80 105.469   1
  -7   4   6 1542.98 112.319   4
  -7   4   6 1535.68 149.187   2
   7   4  -5 1707.15 119.604   1
  -7   4   5 1318.37 136.660   2
  -7   4   5 1373.64 119.714   4
   7   4  -4 3557.34 179.205   1
  -7   4   4 3413.32 178.606   4
   7   4  -4 3034.70 188.068   2
  -7   4   4 3433.86 187.283   2
   7   4  -4 3196.45 210.445   5
   7   4  -3 3602.11 192.844   1
  -7   4   3 3309.69 180.715   4
   7   4  -3 3201.92 197.481   2
   7   4  -3 3653.31 218.267   5
   7   4  -2 1336.52 130.833   1
  -7   4   2 1417.76 126.300   4
   7   4  -2 1440.83 142.595   2
  -7   4   2 1360.74 95.8193   6
   7   4  -1 1406.73 141.450   1
  -7   4   1 1557.24 139.063   4
   7   4  -1 1542.91 149.802   2
   7   4  -1 1563.26 153.149   3
  -7   4   1 1532.20 104.414   6
  -7   4   0 311.859 83.5922   4
   7   4   0 362.581 93.9732   2
   7   4   0 155.305 65.5250   3
  -7   4   0 278.929 59.4042   6
   7   4   0 160.553 80.0134   1
  -7   4  -1 529.696 98.2423   4
   7   4   1 563.228 99.4899   3
   7   4   1 617.030 108.511   2
  -7   4  -1 642.648 86.0576   6
   7   4   1 434.210 106.585   1
   7   4   2 188.491 73.9393   3
   7   4   2 75.3355 76.6051   2
  -7   4  -2 216.220 65.9458   6
  -7   4  -2 209.309 73.9712   4
   7   4   2 116.145 84.2063   1
  -7   4  -3 965.480 136.403   4
   7   4   3 741.305 105.319   3
  -7   4  -3 833.948 103.482   6
   7   4   3 1216.82 160.772   2
   7   4   3 979.011 151.962   1
  -7   4  -4 758.960 129.327   4
   7   4   4 610.373 100.135   3
  -7   4  -4 732.001 105.184   6
   7   4   4 743.055 131.542   2
   7   4   4 769.898 146.024   1
   7   4   5 6077.67 349.011   1
  -7   4  -5 6045.62 334.667   4
   7   4   5 5342.96 319.019   2
   7   4   5 5725.77 245.842   3
  -7   4  -5 6025.78 285.468   6
  -7   4  -6 554.942 116.540   4
  -7   4  -6 597.429 106.268   6
   7   4   6 687.392 96.2533   3
   7   4   6 853.734 164.021   1
   7   4   6 696.865 142.610   2
  -7   4  -7 750.092 147.712   4
   7   4   7 873.516 168.267   2
  -7   4  -8 172.470 105.967   4
   7   4   8 189.333 125.884   2
  -7   4  -9 1802.24 230.116   4
   7   4   9 1646.16 215.365   2
  -7   4 -10 359.970 141.376   4
   7   4  10 765.318 186.296   2
  -7   4 -11 1547.29 236.590   4
   7   4  11 1759.76 247.626   2
   7   5 -19 662.959 155.239   4
   7   5 -18 752.043 149.748   4
   7   5 -17 809.324 157.079   4
   7   5 -17 871.084 173.874   6
  -7   5  17 711.172 192.205   2
   7   5 -16 681.131 143.482   4
   7   5 -16 672.375 160.923   6
  -7   5  16 826.120 190.229   2
   7   5 -15 542.083 129.018   4
   7   5 -15 722.693 154.627   6
  -7   5  15 916.861 184.444   2
   7   5 -14 2178.80 211.756   4
   7   5 -14 1985.90 219.867   6
  -7   5  14 2016.14 233.604   2
   7   5 -13 686.082 127.303   4
  -7   5  13 403.191 122.310   2
   7   5 -13 571.805 130.423   6
  -7   5  12 4583.63 321.288   2
   7   5 -12 4346.92 281.180   4
   7   5 -12 3970.94 284.101   6
   7   5 -11 686.735 118.950   4
   7   5 -11 555.555 116.058   6
   7   5 -11 543.766 91.7071   2
  -7   5  11 679.222 164.814   2
   7   5 -10 810.746 137.543   6
  -7   5  10 561.007 120.376   2
   7   5 -10 853.537 108.361   2
   7   5  -9 382.274 108.670   6
  -7   5   9 471.966 115.275   2
  -7   5   8 2370.43 205.320   2
   7   5  -8 2275.83 198.591   6
  -7   5   7 1713.72 178.111   2
   7   5  -7 1453.80 141.893   2
   7   5  -7 1605.69 167.201   6
  -7   5   6 1575.35 163.135   2
   7   5  -6 1516.03 141.895   2
  -7   5   5 1505.80 135.102   4
   7   5  -5 1057.14 125.433   2
  -7   5   5 1350.68 136.040   2
   7   5  -4 395.721 92.3981   2
  -7   5   4 457.934 88.3922   4
  -7   5   4 340.022 82.5039   2
   7   5  -3 346.842 89.2179   2
  -7   5   3 491.088 99.8143   4
  -7   5   3 257.891 74.7703   2
  -7   5   2 1215.13 137.991   4
   7   5  -2 1409.82 150.594   2
  -7   5   2 1347.71 118.020   6
  -7   5   1 1253.22 145.347   4
   7   5  -1 1249.01 142.753   2
  -7   5   1 1435.15 122.078   6
  -7   5   0 1927.28 175.637   4
   7   5   0 1855.81 180.303   2
  -7   5   0 1894.49 140.096   6
  -7   5  -1 2820.38 214.859   4
   7   5   1 2942.03 229.196   2
  -7   5  -1 2941.10 178.714   6
  -7   5  -2 629.430 116.275   4
   7   5   2 471.859 115.544   2
  -7   5  -2 532.002 86.3978   6
  -7   5  -3 818.794 135.958   4
  -7   5  -3 1156.21 128.502   6
   7   5   3 1195.79 160.670   2
  -7   5  -4 569.183 118.535   4
  -7   5  -4 642.812 107.534   6
   7   5   4 625.805 129.012   2
  -7   5  -5 4574.57 314.226   4
   7   5   5 4392.64 311.133   2
  -7   5  -5 4129.69 253.042   6
  -7   5  -6 848.169 160.856   4
  -7   5  -6 475.658 105.359   6
   7   5   6 791.304 156.176   2
  -7   5  -7 2064.09 235.505   4
  -7   5  -7 2045.86 204.801   6
   7   5   7 2228.13 245.055   2
  -7   5  -8 950.472 177.508   4
   7   5   8 304.551 124.482   2
  -7   5  -9 716.818 171.085   4
   7   5   9 854.138 187.616   2
  -7   5 -10 727.938 168.559   4
   7   5  10 666.252 164.804   2
   7   6 -17 663.386 144.676   4
   7   6 -16 2020.04 229.041   4
   7   6 -15 870.284 165.217   4
   7   6 -15 849.207 175.005   6
  -7   6  15 699.463 178.260   2
   7   6 -14 969.855 174.459   6
  -7   6  14 919.690 186.752   2
   7   6 -14 892.007 154.146   4
   7   6 -13 538.106 120.431   4
  -7   6  13 348.814 139.434   2
   7   6 -13 502.770 133.501   6
   7   6 -12 767.873 103.154   2
   7   6 -12 929.170 159.812   4
  -7   6  12 1038.89 179.864   2
   7   6 -12 810.775 154.967   6
   7   6 -11 669.928 98.1034   2
   7   6 -11 772.641 151.745   4
  -7   6  11 839.091 160.153   2
   7   6 -11 1052.93 170.983   6
  -7   6  10 4762.53 323.290   2
   7   6 -10 4692.36 232.408   2
   7   6 -10 4625.23 315.997   6
   7   6  -9 375.623 86.6334   2
   7   6  -9 330.056 114.434   6
  -7   6   9 406.993 119.045   2
   7   6  -8 1222.71 171.417   6
  -7   6   8 1189.66 168.254   2
   7   6  -8 1299.52 130.845   2
   7   6  -7-26.2824 63.4204   2
   7   6  -7-25.1569 77.2735   6
  -7   6   7 113.399 93.3092   2
  -7   6   6 2071.77 186.693   2
   7   6  -6 1698.76 156.804   2
  -7   6   5 393.698 86.9531   4
   7   6  -5 494.925 102.797   2
  -7   6   5 359.585 103.807   2
  -7   6   4 181.573 79.4063   4
   7   6  -4 275.127 87.4104   2
  -7   6   4 213.998 67.1609   2
  -7   6   3 207.860 89.2229   4
   7   6  -3 206.649 71.3900   2
  -7   6   3 192.326 73.1034   2
  -7   6   2 610.084 115.055   4
   7   6  -2 379.084 109.310   2
  -7   6   2 492.381 85.7052   6
  -7   6   1 1927.76 183.305   4
   7   6  -1 1871.71 185.820   2
  -7   6   1 1812.05 149.821   6
   7   6   0-55.2151 81.5461   2
  -7   6   0 104.075 61.1351   6
  -7   6   0 51.9821 65.5689   4
  -7   6  -1 1190.03 159.136   4
  -7   6  -1 1265.63 132.784   6
   7   6   1 1198.75 165.023   2
  -7   6  -2 326.020 101.499   4
  -7   6  -2 357.397 90.7216   6
   7   6   2 325.899 116.288   2
  -7   6  -3 4854.47 315.091   4
   7   6   3 4655.08 319.343   2
  -7   6  -3 4067.12 247.201   6
  -7   6  -4 1012.18 171.130   4
  -7   6  -4 990.519 136.327   6
   7   6   4 759.677 148.490   2
  -7   6  -5 1024.73 147.928   6
   7   6   5 1022.55 179.678   2
  -7   6  -5 1147.51 180.314   4
  -7   6  -6 474.294 136.760   4
  -7   6  -6 656.322 134.484   6
   7   6   6 475.147 140.880   2
  -7   6  -7 977.539 189.215   4
  -7   6  -7 929.253 155.647   6
   7   6   7 857.823 179.268   2
  -7   6  -8 785.900 176.338   4
  -7   6  -8 655.882 147.590   6
   7   6   8 894.427 188.524   2
  -7   6  -9 1098.40 198.391   6
   7   7 -15 65.1270 104.746   4
   7   7 -14 478.053 135.889   4
  -7   7  14 672.227 184.955   2
   7   7 -13 583.217 149.577   6
  -7   7  13 664.376 155.181   2
   7   7 -13 627.491 152.696   4
   7   7 -12 414.209 138.290   4
  -7   7  12 160.232 102.817   2
   7   7 -12 104.049 90.8562   6
   7   7 -11 642.287 145.905   4
   7   7 -11 665.716 150.857   6
  -7   7  11 664.962 165.814   2
   7   7 -10 762.572 155.480   6
  -7   7  10 428.783 135.884   2
   7   7  -9 417.696 90.4207   2
   7   7  -9 164.230 95.9623   6
  -7   7   9 596.887 141.416   2
  -7   7   8 4352.53 305.330   2
   7   7  -8 4366.20 238.357   2
   7   7  -8 4739.71 333.291   6
   7   7  -7 1213.93 142.484   2
   7   7  -7 1204.31 183.708   6
  -7   7   7 1242.83 165.093   2
   7   7  -6 1049.75 135.787   2
  -7   7   6 944.077 142.196   2
  -7   7   5 198.510 100.019   4
   7   7  -5 9.91855 73.0800   2
  -7   7   5 121.687 82.6984   2
   7   7  -4 30.0514 79.3872   2
  -7   7   4 183.550 92.0405   4
  -7   7   4 55.1651 64.7058   2
  -7   7   3 255.792 96.9275   4
   7   7  -3 212.697 96.9806   2
  -7   7   3 160.553 75.0617   2
  -7   7   2 152.214 83.5375   4
   7   7  -2 280.259 93.9881   2
  -7   7   2 162.083 70.5180   6
  -7   7   1 921.970 151.094   4
  -7   7   1 1002.14 132.125   6
   7   7  -1 945.146 148.190   2
  -7   7   0 1334.93 177.084   4
  -7   7   0 1374.31 152.355   6
   7   7   0 1387.51 172.661   2
  -7   7  -1 4011.53 296.060   4
   7   7   1 4109.92 303.119   2
  -7   7  -1 4402.33 261.571   6
  -7   7  -2 598.801 143.874   4
  -7   7  -2 583.338 111.305   6
   7   7   2 565.343 131.273   2
  -7   7  -3 777.127 156.446   4
  -7   7  -3 705.411 123.130   6
   7   7   3 669.858 156.621   2
  -7   7  -4 705.402 157.241   4
  -7   7  -4 653.157 132.240   6
   7   7   4 643.897 152.475   2
  -7   7  -5 471.121 122.593   6
  -7   7  -5 439.475 150.808   4
   7   7   5 336.926 143.173   2
  -7   7  -6 519.631 147.866   4
  -7   7  -6 825.278 145.310   6
   7   7   6 579.996 166.184   2
  -7   7  -7 651.896 150.015   6
  -7   7  -8 42.1652 136.770   6
  -7   7  -9 1347.15 206.364   6
  -7   8  12 793.543 177.497   2
   7   8 -11 812.421 174.189   4
  -7   8  11 722.534 181.999   2
   7   8 -10 599.100 150.564   4
   7   8 -10 457.437 142.150   6
  -7   8  10 694.333 180.773   2
   7   8  -9 74.3302 99.1242   6
  -7   8   9 113.754 111.410   2
  -7   8   8 531.430 143.448   2
   7   8  -8 382.647 140.144   6
   7   8  -7 93.7773 87.4774   2
   7   8  -7 167.775 112.374   6
  -7   8   7 216.802 108.216   2
  -7   8   6 307.403 116.967   4
   7   8  -6 518.473 118.343   2
   7   8  -6 221.955 115.772   6
  -7   8   6 411.776 125.458   2
  -7   8   5 485.476 132.186   4
   7   8  -5 726.365 128.992   2
  -7   8   5 522.319 119.541   2
  -7   8   4 81.6760 94.5573   4
  -7   8   4-38.5073 80.8074   2
   7   8  -4-6.64008 74.0934   2
  -7   8   3-59.9706 99.9017   4
  -7   8   3 94.0359 84.8422   6
   7   8  -3-145.824 101.698   2
  -7   8   3-74.1764 75.0944   2
  -7   8   2 725.032 151.448   4
  -7   8   2 527.086 105.579   6
   7   8  -2 418.545 120.845   2
  -7   8   1 225.499 114.577   4
  -7   8   1 419.522 108.238   6
   7   8  -1 340.520 124.925   2
  -7   8   0 127.969 77.2778   6
   7   8   0-51.8884 98.4641   2
  -7   8   0 42.3672 119.365   4
  -7   8  -1 349.711 123.431   4
  -7   8  -1 566.964 118.994   6
   7   8   1 708.238 168.231   2
  -7   8  -2-7.22636 106.018   4
  -7   8  -2 63.4785 78.3579   6
   7   8   2 151.687 123.820   2
  -7   8  -3 415.273 136.408   4
  -7   8  -3 433.920 116.117   6
   7   8   3 601.034 171.360   2
  -7   8  -4 758.167 155.576   4
  -7   8  -4 610.195 136.134   6
   7   8   4 337.806 136.268   2
  -7   8  -5 503.816 126.276   6
  -7   9  10 543.846 167.384   2
  -7   9   9-35.6714 135.565   2
  -7   9   8 379.802 155.516   2
  -7   9   7 85.0974 126.854   4
  -7   9   7 87.6886 95.8641   2
  -7   9   6 574.175 158.408   4
  -7   9   5 259.766 124.508   4
  -7   9   4 187.180 132.815   4
   7   9  -4 186.991 86.3400   2
  -7   9   3 214.806 123.853   4
  -7   9   3 346.918 98.3824   6
   7   9  -3 179.061 107.707   2
  -7   9   2 389.012 155.439   4
   7   9  -2 168.134 126.522   2
  -7   9   1 462.331 160.517   4
   7   9  -1 434.716 148.599   2
  -7   9   0 79.7158 119.442   4
   7   9   0 453.307 175.591   2
  -7   9  -1 443.126 157.088   4
   7   9   1 620.449 168.380   2
   7   9   2 310.483 140.989   2
  -8  -9   8 752.511 169.459   7
  -8  -9   7 651.440 194.410   7
  -8  -9   6 2461.18 283.640   7
  -8  -9   5 770.821 192.462   7
  -8  -9   4-30.1979 123.070   7
  -8  -9   3 465.713 174.447   7
  -8  -9   2 2096.63 272.018   7
  -8  -9   2 2403.30 286.531   5
  -8  -9   1 312.929 143.997   5
  -8  -9   0 756.212 180.250   5
  -8  -9  -1 61.8944 111.853   5
  -8  -9  -2 200.636 125.816   5
   8  -8 -13 194.869 142.985   7
   8  -8 -13 57.6138 103.132   3
   8  -8 -12 897.922 198.129   7
   8  -8 -12 811.577 182.834   3
   8  -8 -11 848.748 181.532   3
   8  -8 -10 2385.68 260.130   3
  -8  -8  10 2584.97 289.866   5
  -8  -8   9 726.337 159.832   7
   8  -8  -9 552.347 158.276   3
  -8  -8   9 672.248 173.339   5
  -8  -8   8 652.889 157.983   7
   8  -8  -8 668.020 164.645   3
  -8  -8   8 877.705 178.021   5
  -8  -8   7 722.676 168.082   7
   8  -8  -7 468.535 130.995   3
  -8  -8   7 474.576 144.444   5
  -8  -8   6 2447.28 255.575   7
   8  -8  -6 2120.74 258.199   3
  -8  -8   6 1909.67 240.738   5
   8  -8  -5 1399.45 204.871   3
  -8  -8   5 1561.30 209.625   7
  -8  -8   5 1452.98 212.854   5
  -8  -8   4 5933.97 388.200   7
   8  -8  -4 6100.99 405.751   3
  -8  -8   4 5636.36 389.473   5
  -8  -8   3 1657.47 224.677   7
   8  -8  -3 1369.26 211.649   3
  -8  -8   3 1400.83 207.366   5
  -8  -8   2 2000.99 244.290   7
   8  -8  -2 1875.61 241.843   3
  -8  -8   2 1506.24 209.594   5
  -8  -8   1 796.398 175.456   7
   8  -8  -1 585.865 152.097   3
  -8  -8   1 260.170 138.302   5
  -8  -8   0 888.062 185.561   7
   8  -8   0 734.883 171.038   3
  -8  -8   0 787.088 196.007   5
  -8  -8  -1 538.564 166.878   7
   8  -8   1 480.989 143.363   3
  -8  -8  -1 429.962 154.403   5
  -8  -8  -2 2233.51 271.031   7
   8  -8   2 3061.40 313.764   3
  -8  -8  -2 3208.68 299.646   5
   8  -8   3 860.915 202.146   3
  -8  -8  -3 778.257 179.032   5
   8  -8   4 939.332 194.910   3
  -8  -8  -4 820.963 161.510   5
   8  -8   6 522.119 158.516   5
   8  -7 -16-29.4467 148.989   7
   8  -7 -15-104.702 133.562   7
   8  -7 -14 1167.32 213.094   7
   8  -7 -14 1010.02 176.201   3
  -8  -7  14 1118.27 211.014   5
   8  -7 -13 514.428 170.017   7
   8  -7 -13 880.272 173.665   3
  -8  -7  13 728.003 174.566   5
   8  -7 -12 2338.59 255.499   7
   8  -7 -12 2183.44 243.221   3
  -8  -7  12 2616.22 281.688   5
   8  -7 -11 126.713 118.753   3
  -8  -7  11 415.754 137.287   5
   8  -7 -10 55.5743 118.076   3
  -8  -7  10-44.3387 94.4093   5
  -8  -7   9 873.094 148.107   7
   8  -7  -9 1003.81 169.974   3
  -8  -7   9 923.694 179.082   5
  -8  -7   8 9929.06 438.651   7
   8  -7  -8 9793.21 475.055   3
  -8  -7   8 9906.88 493.041   5
  -8  -7   7 4362.51 299.579   7
   8  -7  -7 4371.65 322.253   3
  -8  -7   7 4152.88 322.843   5
  -8  -7   6 7823.35 401.817   7
   8  -7  -6 8279.13 436.137   3
  -8  -7   6 8019.46 438.469   5
  -8  -7   5 1579.60 200.430   7
   8  -7  -5 1645.08 210.575   3
  -8  -7   5 1244.31 188.874   5
  -8  -7   4 693.829 146.364   7
   8  -7  -4 859.005 161.619   3
  -8  -7   4 815.446 149.356   5
  -8  -7   3 1443.35 190.212   7
   8  -7  -3 1336.58 188.910   3
  -8  -7   3 1635.67 203.416   5
   8  -7  -2 7527.44 423.962   3
  -8  -7   2 7299.25 412.493   7
  -8  -7   2 7418.20 406.814   5
  -8  -7   1 4097.60 316.091   7
   8  -7  -1 4212.06 326.963   3
  -8  -7   1 4274.28 312.206   5
  -8  -7   0 9066.99 474.288   7
   8  -7   0 9478.31 480.241   3
  -8  -7   0 9461.01 448.902   5
  -8  -7  -1 907.009 175.619   7
   8  -7   1 669.383 152.411   3
  -8  -7  -1 1046.45 168.976   5
  -8  -7  -2 149.107 104.698   7
   8  -7   2-10.4184 102.195   3
  -8  -7  -2 40.0478 89.0437   5
  -8  -7  -3 241.293 126.161   7
   8  -7   3 209.004 118.121   3
  -8  -7  -3 457.756 119.951   5
  -8  -7  -4 2342.01 273.233   7
   8  -7   4 2306.60 247.373   3
  -8  -7  -4 2536.27 224.865   5
  -8  -7  -5 634.661 180.653   7
   8  -7   5 878.046 190.873   3
   8  -7   6 962.609 175.490   5
   8  -7   6 1078.15 189.154   3
   8  -7   7-25.5396 104.629   3
   8  -7   8-4.60154 115.931   3
  -8  -6  17 911.312 181.245   5
   8  -6 -16 1779.10 212.578   7
  -8  -6  16 2407.69 265.625   5
   8  -6 -15 776.958 152.798   7
   8  -6 -15 765.466 139.175   3
  -8  -6  15 939.033 184.455   5
   8  -6 -14 960.917 164.700   7
   8  -6 -14 625.675 130.143   3
  -8  -6  14 823.949 164.838   5
   8  -6 -13 455.715 149.606   7
   8  -6 -13 227.188 98.2289   3
  -8  -6  13 248.597 106.873   5
   8  -6 -12 312.184 126.583   7
   8  -6 -12 267.838 96.9872   3
  -8  -6  12 346.982 119.685   5
   8  -6 -11 1040.52 158.966   3
  -8  -6  11 1212.13 194.905   5
   8  -6 -10 12452.7 494.748   3
  -8  -6  10 12032.5 527.365   5
   8  -6  -9 2057.72 208.781   3
  -8  -6   9 2397.77 236.738   5
  -8  -6   8 6041.41 312.419   7
   8  -6  -8 6214.48 352.399   3
  -8  -6   8 6107.52 362.552   5
  -8  -6   7 1289.32 153.099   7
   8  -6  -7 1233.99 168.828   3
  -8  -6   7 1190.24 176.420   5
  -8  -6   6 1676.85 175.411   7
   8  -6  -6 1692.51 195.245   3
  -8  -6   6 1632.13 193.764   5
  -8  -6   5 590.632 129.203   7
   8  -6  -5 671.996 145.557   3
  -8  -6   5 597.896 136.189   5
  -8  -6   4 2599.90 222.712   7
   8  -6  -4 2633.60 190.484   2
   8  -6  -4 2584.61 240.193   3
  -8  -6   4 2624.18 232.135   5
  -8  -6   3 579.828 126.165   7
   8  -6  -3 475.067 125.222   3
   8  -6  -3 458.891 87.0810   2
  -8  -6   3 378.320 115.528   5
  -8  -6   2 1556.51 181.024   7
   8  -6  -2 1527.93 183.897   3
   8  -6  -2 1465.48 126.486   2
  -8  -6   2 1628.38 187.871   5
  -8  -6   1 1174.36 165.680   7
   8  -6  -1 1338.68 176.494   3
  -8  -6   1 1134.33 151.893   5
   8  -6   0 6693.24 370.633   3
  -8  -6   0 6167.21 359.051   7
  -8  -6   0 6140.92 332.475   5
  -8  -6  -1 2227.72 230.025   7
   8  -6   1 2189.04 224.569   3
  -8  -6  -1 2370.65 209.304   5
  -8  -6  -2 11788.7 526.871   7
   8  -6   2 11967.5 505.846   3
  -8  -6  -2 11450.1 437.638   5
  -8  -6  -3 878.564 167.485   7
   8  -6   3 1025.19 165.090   3
  -8  -6  -3 1199.37 153.700   5
  -8  -6  -4 217.580 125.550   7
   8  -6   4 359.928 120.046   3
  -8  -6  -4 178.893 72.1959   5
  -8  -6  -5 456.770 147.085   7
   8  -6   5 690.469 151.730   3
  -8  -6  -5 377.501 97.8389   5
  -8  -6  -6 1059.86 194.516   7
   8  -6   6 1014.04 165.922   3
   8  -6   7 786.361 142.794   5
   8  -6   7 732.044 150.296   3
   8  -6   8 2125.94 236.048   3
  -8  -5  19 130.964 126.272   5
  -8  -5  18 528.043 133.621   5
  -8  -5  17 387.539 112.614   5
   8  -5 -16 327.875 102.238   7
  -8  -5  16 591.072 152.425   5
   8  -5 -15 479.930 115.111   7
   8  -5 -15 758.404 128.816   3
  -8  -5  15 443.404 134.440   5
   8  -5 -14 1606.32 182.127   7
   8  -5 -14 2044.31 197.120   3
  -8  -5  14 1560.78 204.865   5
   8  -5 -13 1313.37 173.127   7
   8  -5 -13 1379.51 165.628   3
  -8  -5  13 1237.71 180.008   5
   8  -5 -12 5283.68 307.554   7
   8  -5 -12 4422.94 285.253   3
  -8  -5  12 5115.47 335.722   5
   8  -5 -11 650.702 130.906   3
  -8  -5  11 925.200 153.362   5
   8  -5 -10 87.3114 72.5479   3
  -8  -5  10 8.82164 73.5626   5
  -8  -5   9 1163.91 135.481   7
   8  -5  -9 978.270 137.730   3
  -8  -5   9 1118.99 164.636   5
  -8  -5   8 7054.37 296.716   7
   8  -5  -8 7143.12 357.150   3
  -8  -5   8 7331.14 376.020   5
  -8  -5   7 2647.45 190.486   7
   8  -5  -7 2429.72 212.370   3
  -8  -5   7 2309.93 214.166   5
  -8  -5   6 11443.5 385.040   7
   8  -5  -6 11042.0 434.972   3
  -8  -5   6 10508.5 423.866   5
   8  -5  -5 332.168 90.9949   2
  -8  -5   5 110.948 80.8819   7
   8  -5  -5 163.202 102.674   3
  -8  -5   5 257.844 102.490   5
  -8  -5   4 2780.22 206.204   7
   8  -5  -4 2960.31 227.214   3
   8  -5  -4 2598.38 181.719   2
  -8  -5   4 2675.24 211.983   5
   8  -5  -3 348.071 83.7836   2
  -8  -5   3 340.070 99.7998   7
   8  -5  -3 478.293 117.601   3
  -8  -5   3 335.539 102.992   5
  -8  -5   2 11441.2 425.875   7
   8  -5  -2 12503.4 469.025   3
   8  -5  -2 11596.8 330.839   2
  -8  -5   2 11564.6 420.200   5
  -8  -5   1 2697.88 223.322   7
   8  -5  -1 2805.56 227.687   3
   8  -5  -1 2598.01 155.686   2
  -8  -5   1 2594.64 210.331   5
  -8  -5   0 6997.81 354.621   7
   8  -5   0 6581.87 343.163   3
   8  -5   0 7301.32 225.241   2
  -8  -5   0 7205.41 328.826   5
  -8  -5  -1 804.984 145.530   7
   8  -5   1 1142.07 85.6424   2
   8  -5   1 1003.35 148.492   3
  -8  -5  -1 1148.36 135.149   5
  -8  -5  -2-74.2367 82.8739   7
   8  -5   2 58.6335 71.1036   3
  -8  -5  -2 52.5218 61.7113   5
  -8  -5  -3 678.966 139.760   7
   8  -5   3 510.795 110.450   3
  -8  -5  -3 549.733 96.3913   5
  -8  -5  -4 5276.92 350.489   7
   8  -5   4 5416.40 319.540   3
  -8  -5  -4 4900.73 255.586   5
  -8  -5  -5 1447.67 202.461   7
   8  -5   5 1446.08 181.413   3
  -8  -5  -5 1157.50 126.195   5
  -8  -5  -6 1667.48 219.769   7
   8  -5   6 1872.99 197.169   3
   8  -5   7 731.205 124.752   5
  -8  -5  -7 579.657 155.006   7
   8  -5   7 570.385 127.953   3
   8  -5   8 366.792 91.8453   1
  -8  -5  -8 410.928 155.763   7
   8  -5   8 393.376 111.556   3
  -8  -5  -9 639.022 181.583   7
  -8  -4  19 249.597 93.7988   5
  -8  -4  18-48.4465 101.710   5
  -8  -4  17 217.289 99.6038   5
   8  -4 -16 1135.07 152.956   7
   8  -4 -16 955.979 128.189   3
  -8  -4  16 715.439 150.095   5
   8  -4 -15 239.093 86.0374   7
   8  -4 -15 181.022 71.0292   3
  -8  -4  15 54.3584 79.5502   5
   8  -4 -14 757.841 125.625   7
   8  -4 -14 553.209 106.078   3
  -8  -4  14 609.245 134.942   5
   8  -4 -13 618.702 114.757   7
   8  -4 -13 611.581 104.958   3
  -8  -4  13 612.673 141.164   5
   8  -4 -12 4696.24 261.587   7
   8  -4 -12 4154.85 252.514   3
  -8  -4  12 3847.45 271.111   5
   8  -4 -11 1458.52 162.813   3
  -8  -4  11 1227.51 165.443   5
   8  -4 -10 3801.17 246.566   3
  -8  -4  10 3682.86 258.021   5
  -8  -4   9 457.114 81.9937   7
   8  -4  -9 493.848 105.202   3
  -8  -4   9 359.384 107.374   5
  -8  -4   8-33.8194 55.7644   7
  -8  -4   8-8.22819 73.3735   5
  -8  -4   7 722.443 98.5667   7
   8  -4  -7 611.272 111.130   3
  -8  -4   7 613.159 119.118   5
  -8  -4   6 5421.71 236.185   7
   8  -4  -6 5233.00 278.378   3
   8  -4  -6 5325.69 264.505   2
  -8  -4   6 5515.52 292.436   5
  -8  -4   5 3889.64 207.473   7
   8  -4  -5 4102.01 250.950   3
   8  -4  -5 4347.09 232.113   2
  -8  -4   5 4534.13 260.251   5
   8  -4  -4 33212.8 697.367   3
  -8  -4   4 33186.7 609.473   7
   8  -4  -4 33079.9 583.302   2
  -8  -4   4 32535.3 664.838   5
  -8  -4   3 4020.22 227.146   7
   8  -4  -3 4012.69 242.467   3
   8  -4  -3 4433.56 209.742   2
  -8  -4   3 3985.94 238.220   5
  -8  -4   2 5218.01 263.685   7
   8  -4  -2 5106.87 274.958   3
  -8  -4   2 5377.41 266.504   5
   8  -4  -2 5081.84 212.188   2
  -8  -4   1 534.676 116.052   7
   8  -4  -1 584.419 80.4454   2
   8  -4  -1 488.404 109.788   3
  -8  -4   1 389.820 85.7223   5
   8  -4   0 16.4805 47.7889   2
  -8  -4   0 90.0180 84.8099   7
   8  -4   0 79.5735 76.1631   3
  -8  -4   0-10.9261 61.9620   5
  -8  -4  -1 289.908 102.343   7
   8  -4   1 401.868 65.6374   2
   8  -4   1 317.343 95.6982   3
  -8  -4  -1 463.747 88.7918   5
  -8  -4  -2 2578.03 219.067   7
   8  -4   2 3313.97 233.146   3
  -8  -4  -2 2986.33 187.025   5
   8  -4   2 3152.57 134.867   2
   8  -4   3 1386.23 84.8226   2
   8  -4   3 1406.00 84.5090   2
  -8  -4  -3 1416.09 181.888   7
   8  -4   3 1599.89 166.127   3
  -8  -4  -3 1412.89 128.859   5
   8  -4   4 3701.30 125.449   2
   8  -4   4 3659.93 124.609   2
   8  -4   4 3766.23 248.307   3
  -8  -4  -4 3969.94 198.762   5
  -8  -4  -4 3674.15 276.986   7
  -8  -4  -5 555.783 138.317   7
   8  -4   5 600.452 116.765   3
  -8  -4  -5 695.725 86.5443   5
  -8  -4  -6 729.933 153.613   7
   8  -4   6 728.382 125.685   3
  -8  -4  -6 898.204 89.7442   5
   8  -4   7 202.602 65.2170   5
  -8  -4  -7 153.398 95.9447   7
   8  -4   7 264.520 89.0497   3
   8  -4   7 435.555 103.161   1
  -8  -4  -8 920.531 183.795   7
   8  -4   8 1128.55 144.384   1
   8  -4   8 1291.68 148.198   3
  -8  -4  -9 273.776 130.676   7
   8  -4   9 455.696 105.154   1
  -8  -4 -10 55.0135 119.979   7
  -8  -3  19 442.142 140.555   5
  -8  -3  18 470.478 115.799   5
  -8  -3  17 119.907 95.4011   5
   8  -3 -16 339.164 77.5779   7
   8  -3 -16 307.244 79.1852   3
  -8  -3  16 360.312 115.702   5
   8  -3 -15 260.424 76.9096   7
   8  -3 -15 126.949 67.9017   3
  -8  -3  15 396.158 112.382   5
   8  -3 -14 6933.47 281.727   7
   8  -3 -14 6512.01 293.905   3
  -8  -3  14 6853.06 356.197   5
  -8  -3  13 1830.93 77.9878   7
   8  -3 -13 1882.78 153.306   7
   8  -3 -13 1959.21 166.337   3
  -8  -3  13 2000.57 193.901   5
  -8  -3  12 6154.34 145.511   7
   8  -3 -12 6728.89 272.150   7
   8  -3 -12 6052.37 283.561   3
  -8  -3  12 6295.23 325.595   5
  -8  -3  11 367.030 52.7802   7
   8  -3 -11 457.051 101.676   7
  -8  -3  11 425.570 107.070   5
   8  -3 -11 373.244 87.1888   3
  -8  -3  10 840.383 71.3339   7
  -8  -3  10 1023.02 144.281   5
   8  -3 -10 953.432 119.291   3
  -8  -3   9 325.410 55.3471   7
  -8  -3   9 350.950 95.1982   5
   8  -3  -9 219.243 74.8133   3
  -8  -3   8 51.3986 39.5180   7
  -8  -3   8-40.5172 66.6483   5
   8  -3  -8 76.0745 78.0125   3
   8  -3  -7 608.174 103.603   2
  -8  -3   7 630.938 74.2338   7
  -8  -3   7 669.587 112.743   5
   8  -3  -7 788.852 114.082   3
  -8  -3   6 12472.7 298.799   7
   8  -3  -6 12842.3 410.735   5
   8  -3  -6 12170.9 387.385   3
  -8  -3   6 11977.9 390.499   5
   8  -3  -6 11662.2 362.962   2
  -8  -3   5 1120.97 102.329   7
   8  -3  -5 1238.28 123.679   2
   8  -3  -5 1237.17 133.496   5
   8  -3  -5 1151.70 131.185   3
  -8  -3   5 1144.17 131.896   5
  -8  -3   4 187.132 57.0738   7
   8  -3  -4 184.357 73.9945   2
   8  -3  -4 137.921 63.6871   5
   8  -3  -4 180.736 75.2524   3
  -8  -3   4 68.4467 54.0588   5
   8  -3  -3 1101.06 109.766   2
  -8  -3   3 988.397 113.157   7
   8  -3  -3 1074.76 125.312   5
   8  -3  -3 1035.78 125.962   3
  -8  -3   3 1095.19 121.538   5
   8  -3  -2 10873.6 303.698   2
  -8  -3   2 11224.8 348.013   7
   8  -3  -2 11606.6 369.354   5
   8  -3  -2 11708.7 379.509   3
  -8  -3   2 11300.7 348.394   5
  -8  -3   1 655.354 99.6238   7
   8  -3  -1 692.065 94.6033   4
   8  -3  -1 764.451 103.876   5
   8  -3  -1 721.568 83.9921   2
   8  -3  -1 792.858 115.333   3
  -8  -3   1 625.686 96.4100   5
   8  -3   0 70.1657 69.4438   4
  -8  -3   0 77.7038 64.9260   7
   8  -3   0 194.651 68.1580   5
   8  -3   0 144.593 72.2418   3
   8  -3   0 60.8222 43.4955   2
  -8  -3   0 37.9109 54.9496   5
   8  -3   1 363.539 88.0561   4
  -8  -3  -1 330.551 92.4795   7
   8  -3   1 176.874 66.8650   5
   8  -3   1 323.770 90.6980   3
  -8  -3  -1 329.238 69.7609   5
   8  -3   1 268.983 56.4423   2
  -8  -3  -2 1090.18 145.941   7
   8  -3   2 947.210 101.362   6
   8  -3   2 842.306 105.000   5
   8  -3   2 1091.12 130.575   3
  -8  -3  -2 887.356 97.8703   5
   8  -3   3 478.504 67.3373   2
  -8  -3  -3 527.184 123.629   7
   8  -3   3 378.046 76.4159   6
   8  -3   3 377.183 100.138   3
   8  -3   3 434.074 80.1972   5
  -8  -3  -3 449.839 74.4960   5
   8  -3   4 6571.79 206.828   2
   8  -3   4 6131.35 257.373   6
   8  -3   4 6389.38 291.332   3
   8  -3   4 6297.84 254.868   5
  -8  -3  -4 6108.02 208.388   5
  -8  -3  -4 5826.73 323.403   7
   8  -3   5 2181.29 129.031   2
   8  -3   5 2165.09 178.503   3
   8  -3   5 1889.22 160.906   6
   8  -3   5 2152.64 154.445   5
  -8  -3  -5 2035.84 209.806   7
  -8  -3  -5 1890.06 106.549   5
  -8  -3  -6 7478.56 396.174   7
   8  -3   6 7045.39 224.835   2
   8  -3   6 7163.08 303.521   3
   8  -3   6 6317.96 250.358   5
  -8  -3  -6 5915.87 153.540   5
   8  -3   7 156.037 54.2285   5
  -8  -3  -7 295.296 115.111   7
   8  -3   7 304.813 81.0378   3
   8  -3   7 289.655 60.1899   2
   8  -3   7 312.858 102.211   1
  -8  -3  -8 274.750 121.857   7
   8  -3   8 301.975 83.6123   3
   8  -3   8 228.728 86.0475   1
   8  -3   9-5.24211 82.9946   1
  -8  -3  -9 92.7271 118.293   7
  -8  -3 -10 481.955 161.407   7
   8  -3  10 738.119 137.027   1
  -8  -3 -11 549.581 157.115   7
   8  -3  11 470.718 125.913   1
  -8  -2  19 814.668 145.828   5
  -8  -2  18 568.802 130.607   5
  -8  -2  17 738.140 132.404   5
   8  -2 -17 611.805 90.0782   3
   8  -2 -16 2865.77 166.926   7
   8  -2 -16 2890.86 188.229   3
  -8  -2  16 2294.67 212.103   5
   8  -2 -15 565.882 83.2964   7
  -8  -2  15 371.559 100.507   5
   8  -2 -15 444.548 88.1412   3
   8  -2 -14 1999.14 131.630   7
  -8  -2  14 2052.80 192.484   5
   8  -2 -14 2057.79 163.077   3
   8  -2 -13 1321.20 132.326   3
   8  -2 -13 1443.45 112.614   7
  -8  -2  13 1222.64 144.855   5
   8  -2 -12 6763.64 225.429   7
  -8  -2  12 6973.78 323.101   5
   8  -2 -12 6731.72 281.564   3
   8  -2 -11 3814.96 176.611   7
  -8  -2  11 4101.72 245.624   5
   8  -2 -11 4165.47 218.828   3
  -8  -2  10 9196.97 351.365   5
   8  -2 -10 9282.48 321.528   3
   8  -2  -9 680.038 106.073   5
  -8  -2   9 887.765 118.749   5
   8  -2  -9 742.898 103.525   3
  -8  -2   8 5468.09 122.233   7
   8  -2  -8 5838.07 269.915   5
  -8  -2   8 5888.34 271.792   5
   8  -2  -8 5350.16 241.959   3
   8  -2  -8 5697.47 264.471   2
  -8  -2   7 681.612 56.5778   7
   8  -2  -7 751.025 105.479   2
   8  -2  -7 680.107 99.4142   5
  -8  -2   7 568.712 98.1869   5
   8  -2  -7 574.898 93.0658   3
   8  -2  -6 1301.48 126.353   2
  -8  -2   6 1462.69 88.3576   7
   8  -2  -6 1231.44 128.990   5
  -8  -2   6 1195.73 125.097   5
   8  -2  -6 1149.23 119.392   3
   8  -2  -5 2610.77 161.248   2
  -8  -2   5 2567.54 125.306   7
   8  -2  -5 2483.06 170.920   5
  -8  -2   5 2592.02 169.976   5
   8  -2  -5 2501.37 167.610   3
   8  -2  -4 17490.0 304.118   4
   8  -2  -4 18561.1 404.669   2
  -8  -2   4 18128.8 354.201   7
   8  -2  -4 17980.4 433.733   5
  -8  -2   4 18036.4 427.098   5
   8  -2  -4 18432.3 437.254   3
   8  -2  -3 2184.15 126.658   4
  -8  -2   3 2138.02 136.760   7
   8  -2  -3 2316.42 144.072   2
   8  -2  -3 2348.43 153.394   5
   8  -2  -3 2263.31 160.114   3
  -8  -2   3 2437.33 156.871   5
   8  -2  -2 1317.05 107.156   4
  -8  -2   2 1205.73 112.303   7
   8  -2  -2 1285.46 108.537   2
   8  -2  -2 1562.43 130.727   5
   8  -2  -2 1485.63 133.719   3
  -8  -2   2 1523.27 123.411   5
   8  -2  -1 702.791 91.3545   4
  -8  -2   1 728.899 94.6052   7
   8  -2  -1 851.348 100.679   5
  -8  -2   1 699.893 84.8270   5
   8  -2  -1 735.238 101.484   3
   8  -2   0 5533.15 235.693   4
   8  -2   0 5186.42 154.013   6
   8  -2   0 5984.27 233.249   5
   8  -2   0 5600.43 247.911   3
  -8  -2   0 5285.74 207.136   5
  -8  -2   0 5077.19 242.435   7
   8  -2   1 888.447 121.986   7
   8  -2   1 778.198 102.519   4
  -8  -2  -1 1011.44 125.267   7
   8  -2   1 841.077 79.7643   6
   8  -2   1 1090.76 103.991   5
  -8  -2  -1 922.517 92.4204   5
   8  -2   1 983.657 106.068   3
   8  -2   2 10160.7 350.398   4
   8  -2   2 11090.7 287.468   2
  -8  -2  -2 10380.9 378.758   7
   8  -2   2 10087.8 272.459   6
   8  -2   2 10999.8 345.685   3
   8  -2   2 10440.2 297.232   5
  -8  -2  -2 9931.15 257.418   5
  -8  -2  -3 4511.55 260.455   7
   8  -2   3 4457.60 192.659   2
   8  -2   3 4563.60 201.038   6
   8  -2   3 4469.56 222.209   3
   8  -2   3 4558.19 195.661   5
  -8  -2  -3 4643.52 165.540   5
   8  -2   4 7261.21 245.885   2
  -8  -2  -4 6836.81 340.754   7
   8  -2   4 6863.14 267.849   6
   8  -2   4 7479.65 285.432   3
   8  -2   4 7116.35 231.735   5
  -8  -2  -4 6517.67 177.252   5
   8  -2   5 1339.88 129.812   3
   8  -2   5 1244.99 112.008   2
   8  -2   5 1191.61 134.770   6
  -8  -2  -5 937.767 55.6006   5
   8  -2   5 1243.87 98.1717   5
   8  -2   5 1254.82 147.379   1
  -8  -2  -5 1277.78 162.838   7
  -8  -2  -6 2117.71 213.461   7
   8  -2   6 1889.27 142.857   2
   8  -2   6 2148.79 186.202   1
   8  -2   6 1880.46 110.182   5
   8  -2   6 2096.03 154.248   3
   8  -2   7 384.185 48.6724   5
  -8  -2  -7 549.716 140.683   7
   8  -2   7 430.668 80.8088   3
   8  -2   7 465.609 87.0457   2
   8  -2   7 361.013 99.2482   1
  -8  -2  -8 2980.25 272.532   7
   8  -2   8 2823.61 224.775   1
   8  -2   8 3033.04 189.531   2
   8  -2   8 2732.92 168.494   3
  -8  -2  -9 1040.47 176.223   7
   8  -2   9 1084.60 125.851   2
   8  -2   9 1184.11 160.604   1
  -8  -2 -10 769.791 178.060   7
   8  -2  10 860.076 148.313   1
  -8  -2 -11 1272.72 209.100   7
   8  -2  11 1215.66 177.149   1
   8  -2  12 185.859 118.682   1
  -8  -1  19-86.3307 84.4957   5
  -8  -1  18 1458.92 178.046   5
  -8  -1  17 1529.99 173.244   5
   8  -1 -17 1436.03 129.608   3
  -8  -1  16 31.7970 76.9583   5
   8  -1 -16 156.476 64.1857   3
   8  -1 -15 901.581 109.854   3
   8  -1 -15 881.253 71.0698   7
  -8  -1  15 906.700 130.265   5
  -8  -1  14 2557.44 206.217   5
   8  -1 -14 2409.36 108.872   7
   8  -1 -14 2618.23 174.497   3
   8  -1 -13 1425.64 79.1408   7
  -8  -1  13 1209.41 145.835   5
   8  -1 -13 1367.91 132.168   3
   8  -1 -12 8360.02 177.101   7
  -8  -1  12 7945.40 334.350   5
   8  -1 -12 8303.39 299.351   3
   8  -1 -11 718.821 101.013   3
   8  -1 -11 726.386 55.5598   7
  -8  -1  11 755.436 109.748   6
  -8  -1  11 660.039 115.222   5
   8  -1 -11 713.097 113.524   5
  -8  -1  10 1802.31 158.233   5
  -8  -1  10 1668.96 137.448   6
   8  -1 -10 1763.09 158.283   5
   8  -1 -10 1736.97 87.4778   7
   8  -1 -10 1937.65 147.679   3
  -8  -1   9 2868.92 172.111   6
  -8  -1   9 3210.44 197.984   5
   8  -1  -9 3106.11 193.465   5
   8  -1  -9 3108.94 181.501   3
   8  -1  -9 3217.56 200.375   2
   8  -1  -8 34379.5 618.700   2
   8  -1  -8 34452.1 612.447   5
  -8  -1   8 33499.7 601.053   5
   8  -1  -8 34313.1 576.835   3
   8  -1  -7 11054.2 340.524   2
   8  -1  -7 10970.8 341.338   5
  -8  -1   7 10949.7 341.308   5
   8  -1  -7 10800.8 325.143   3
   8  -1  -6 25809.5 495.532   2
   8  -1  -6 25304.9 499.593   5
  -8  -1   6 24940.4 493.628   5
   8  -1  -6 23961.3 478.004   3
   8  -1  -5 1966.93 80.1041   4
  -8  -1   5 2141.85 105.971   7
   8  -1  -5 2310.94 148.919   2
   8  -1  -5 2183.08 149.957   5
  -8  -1   5 2347.03 155.672   5
   8  -1  -5 2054.85 144.204   3
   8  -1  -4 5468.16 156.759   4
   8  -1  -4 5955.98 232.966   5
  -8  -1   4 5413.34 222.634   5
   8  -1  -4 6263.22 241.565   3
  -8  -1   4 5463.38 183.966   7
   8  -1  -3 2216.83 112.857   4
  -8  -1   3 1876.58 120.407   7
   8  -1  -3 2239.53 144.228   5
  -8  -1   3 1875.17 130.165   5
   8  -1  -3 2162.63 144.974   3
   8  -1  -2 24402.3 399.129   4
   8  -1  -2 24842.2 457.379   7
  -8  -1   2 24307.1 441.233   7
   8  -1  -2 20283.7 187.200   6
   8  -1  -2 25375.5 455.526   5
  -8  -1   2 24681.6 441.973   5
   8  -1  -2 24290.3 471.660   3
   8  -1  -1 11836.7 304.048   4
   8  -1  -1 11756.4 332.511   7
   8  -1  -1 11309.6 297.117   5
  -8  -1   1 10740.4 283.805   5
  -8  -1   1 11096.1 320.036   7
   8  -1  -1 11274.1 321.544   3
   8  -1  -1 11383.4 187.464   6
   8  -1   0 34955.2 558.723   4
   8  -1   0 35629.9 600.288   7
   8  -1   0 33382.0 383.612   6
   8  -1   0 33748.9 495.332   5
  -8  -1   0 34803.0 485.892   5
  -8  -1   0 34334.0 597.288   7
   8  -1   0 33629.4 554.318   3
   8  -1   1 3388.34 189.011   4
  -8  -1  -1 3537.09 207.428   7
   8  -1   1 3519.93 203.960   7
   8  -1   1 3242.73 140.557   6
  -8  -1  -1 3289.83 147.584   5
   8  -1   1 3291.30 152.630   5
   8  -1   1 3376.10 180.495   3
   8  -1   2 1803.23 151.521   4
   8  -1   2 1687.35 125.500   2
  -8  -1  -2 1901.58 164.073   7
   8  -1   2 1543.06 145.367   7
   8  -1   2 1813.73 118.674   6
  -8  -1  -2 1801.56 105.340   5
   8  -1   2 1916.94 116.979   5
   8  -1   2 1859.17 138.788   3
   8  -1   3 812.355 96.4990   2
   8  -1   3 648.285 85.4539   6
  -8  -1  -3 826.532 68.5683   5
  -8  -1  -3 629.787 113.897   7
   8  -1   3 655.206 68.9352   5
   8  -1   3 796.705 94.5655   3
  -8  -1  -4 8384.72 361.773   7
   8  -1   4 8627.12 292.502   2
   8  -1   4 8593.30 206.017   5
   8  -1   4 8803.85 299.598   6
   8  -1   4 8557.87 337.518   1
   8  -1   4 8225.59 274.270   3
   8  -1   5 1660.23 144.399   2
  -8  -1  -5 1645.51 181.958   7
   8  -1   5 1376.11 150.032   1
   8  -1   5 1386.59 140.615   6
   8  -1   5 1424.21 119.600   3
   8  -1   5 1389.46 77.3816   5
  -8  -1  -6 2345.17 216.049   7
   8  -1   6 2905.54 185.536   2
   8  -1   6 2813.41 210.304   1
   8  -1   6 2384.72 149.288   3
   8  -1   7 827.593 139.750   1
  -8  -1  -7 1055.02 162.099   7
   8  -1   7 892.384 88.5179   3
   8  -1   7 1124.38 130.249   2
  -8  -1  -8 176.130 98.0428   7
   8  -1   8 102.154 41.6034   3
   8  -1   8 274.565 96.9408   2
   8  -1   8 282.868 99.6173   1
   8  -1   9 1698.41 169.940   2
   8  -1   9 1734.83 191.098   1
   8  -1  10 2064.17 215.595   1
   8  -1  10 2356.46 201.346   2
   8  -1  11 289.793 127.507   1
   8  -1  12 1057.38 193.555   1
   8  -1  13 380.243 140.061   1
  -8   0  20 1020.24 179.425   2
  -8   0  19 1046.65 156.236   5
  -8   0  19 1382.78 196.153   2
  -8   0  18 1126.13 148.156   5
  -8   0  18 1328.81 183.961   2
   8   0 -17 1048.39 120.044   3
   8   0 -17 852.708 105.490   4
  -8   0  17 903.114 140.377   5
  -8   0  17 1074.47 168.992   2
   8   0 -16 2937.10 160.387   4
  -8   0  16 3430.26 265.130   2
  -8   0  16 3122.10 228.481   5
   8   0 -16 2986.54 183.629   3
   8   0 -15 1153.33 100.190   4
  -8   0  15 1153.09 140.925   5
   8   0 -15 1241.72 123.999   3
  -8   0  15 1421.35 173.412   2
   8   0 -14 2863.40 138.120   4
  -8   0  14 2951.38 226.689   2
  -8   0  14 2873.26 210.923   5
   8   0 -14 2855.17 181.019   3
  -8   0  13 775.003 127.999   2
   8   0 -13 651.427 96.3513   3
   8   0 -13 677.058 68.0121   4
  -8   0  13 493.355 106.959   5
   8   0 -12 349.327 80.5832   3
   8   0 -12 305.400 43.7816   4
  -8   0  12 339.107 84.2360   6
  -8   0  12 340.009 86.6835   5
   8   0 -11 4441.29 120.229   4
   8   0 -11 4189.03 205.740   6
  -8   0  11 4050.43 216.338   6
  -8   0  11 4177.97 235.220   5
   8   0 -11 4265.78 243.904   5
   8   0 -11 4304.59 211.577   3
   8   0 -10 34490.3 648.040   2
   8   0 -10 33917.8 280.885   4
  -8   0  10 35236.2 561.351   6
   8   0 -10 33661.4 534.758   6
  -8   0  10 33551.8 633.647   5
   8   0 -10 34109.1 646.092   5
   8   0 -10 34096.2 582.889   3
   8   0  -9 3703.95 165.377   6
   8   0  -9 3224.24 75.5190   4
   8   0  -9 3499.73 207.296   2
   8   0  -9 3345.28 186.827   3
  -8   0   9 3357.81 163.974   6
  -8   0   9 3400.94 201.388   5
   8   0  -9 3461.04 204.416   5
   8   0  -8 12268.3 345.257   3
   8   0  -8 12899.4 370.284   2
   8   0  -8 12682.0 276.234   6
  -8   0   8 12467.2 287.738   6
  -8   0   8 12558.2 368.401   5
   8   0  -8 12594.6 369.288   5
   8   0  -7 499.608 34.2084   4
   8   0  -7 445.540 76.0338   3
   8   0  -7 473.838 37.4032   7
   8   0  -7 556.772 58.1588   6
  -8   0   7 511.401 87.6273   5
   8   0  -7 539.866 84.5821   5
   8   0  -7 474.635 82.6436   2
   8   0  -6 17625.2 403.340   2
   8   0  -6 16873.3 214.124   4
   8   0  -6 16601.0 389.503   3
   8   0  -6 17337.6 250.271   7
   8   0  -6 17362.8 263.712   6
  -8   0   6 16899.8 405.861   5
   8   0  -6 17492.6 404.182   5
   8   0  -5 5260.85 223.470   3
   8   0  -5 5397.06 142.434   4
   8   0  -5 5290.51 160.353   7
   8   0  -5 5351.35 133.858   6
  -8   0   5 5518.98 225.838   5
   8   0  -5 5615.49 224.645   5
   8   0  -4 25427.8 340.397   4
   8   0  -4 23370.6 364.590   7
  -8   0   4 23654.5 457.845   5
   8   0  -4 24099.4 449.421   5
   8   0  -4 23590.5 457.028   3
   8   0  -3 5688.02 180.093   4
   8   0  -3 5437.59 195.447   7
  -8   0   3 5614.02 222.707   5
   8   0  -3 5322.72 207.993   5
   8   0  -3 5248.66 220.571   3
   8   0  -2 17908.5 347.277   4
   8   0  -2 17423.0 369.757   7
  -8   0   2 17415.6 369.865   5
   8   0  -2 16912.7 352.433   5
   8   0  -2 17079.0 385.996   3
   8   0  -1 400.728 71.9784   3
   8   0  -1 448.151 67.0121   4
   8   0  -1 548.563 80.2486   7
  -8   0   1 361.026 63.5747   5
   8   0  -1 448.132 62.0843   5
  -8   0   0 12144.2 340.086   4
   8   0   0 12398.0 334.624   4
  -8   0   0 12889.0 297.677   5
   8   0   0 12344.5 279.958   5
   8   0   0 12385.6 325.273   3
   8   0   0 12443.9 352.161   7
  -8   0  -1 3520.24 197.464   4
   8   0   1 3694.11 198.784   4
   8   0   1 3555.02 185.694   2
   8   0   1 3722.47 206.731   7
  -8   0  -1 3456.19 150.641   5
   8   0   1 3329.83 142.224   5
   8   0   1 3653.92 177.588   3
  -8   0  -2 34954.8 644.383   4
   8   0   2 33977.0 625.345   4
   8   0   2 33941.8 571.307   2
   8   0   2 33848.3 638.941   7
   8   0   2 34319.9 626.771   1
   8   0   2 34112.4 417.575   5
   8   0   2 33483.4 522.000   3
  -8   0  -3 3951.03 235.734   4
   8   0   3 4245.21 215.724   2
   8   0   3 3980.04 226.852   1
   8   0   3 4290.94 139.199   5
   8   0   3 4131.06 188.142   3
  -8   0  -4 263.315 90.0519   4
   8   0   4 311.809 79.2991   2
   8   0   4 489.477 90.2167   6
   8   0   4 262.628 35.1958   5
   8   0   4 366.178 64.6905   3
   8   0   4 285.171 85.3234   1
  -8   0  -5 555.214 115.965   4
   8   0   5 652.427 123.435   1
   8   0   5 666.890 109.412   6
   8   0   5 555.346 101.195   2
   8   0   5 631.360 79.3637   3
  -8   0  -6 2752.33 232.270   4
   8   0   6 2968.30 221.369   1
   8   0   6 2476.92 135.816   3
   8   0   6 2843.49 206.441   2
  -8   0  -7 1115.57 159.922   4
   8   0   7 1128.83 142.781   2
   8   0   7 875.270 76.8878   3
   8   0   7 1151.66 154.256   1
  -8   0  -8 2997.20 261.655   4
   8   0   8 3233.24 246.113   1
   8   0   8 3349.57 235.579   2
   8   0   9 1260.72 174.413   1
  -8   0  -9 1017.22 172.028   4
   8   0   9 1248.47 153.428   2
  -8   0 -10 1389.21 212.193   4
   8   0  10 1450.25 194.710   1
   8   0  10 1605.29 182.550   2
   8   0  11 1326.07 194.076   1
   8   0  11 1308.67 178.065   2
   8   0  12 1012.66 179.900   2
   8   0  12 932.410 181.717   1
   8   0  13 517.357 164.497   1
  -8   1  21 445.641 153.954   2
  -8   1  20 979.015 182.261   2
  -8   1  19-31.4838 104.513   2
  -8   1  18 1303.34 170.780   5
  -8   1  18 2018.87 234.559   2
   8   1 -17 1565.43 143.466   4
  -8   1  17 1200.83 156.850   5
  -8   1  17 1854.63 216.452   2
   8   1 -17 1527.77 147.783   3
   8   1 -16 271.615 73.1754   3
   8   1 -16 149.614 56.3839   4
  -8   1  16 167.550 83.9383   5
  -8   1  16 331.543 123.899   2
   8   1 -15 987.459 104.178   4
  -8   1  15 656.178 111.789   5
   8   1 -15 1125.51 108.067   1
  -8   1  15 931.353 154.597   2
   8   1 -14 2891.56 157.046   4
   8   1 -14 2739.24 215.935   6
  -8   1  14 2218.92 193.920   5
  -8   1  14 2956.13 240.155   2
   8   1 -13 1742.43 119.548   4
   8   1 -13 1417.67 150.793   6
  -8   1  13 1230.47 144.949   5
  -8   1  13 1499.85 173.393   2
   8   1 -12 8590.99 234.502   4
  -8   1  12 8306.93 356.552   2
   8   1 -12 8241.93 319.883   6
  -8   1  12 8188.30 314.093   6
  -8   1  12 8579.60 346.088   5
   8   1 -11 703.151 70.7254   4
   8   1 -11 652.043 98.8072   6
  -8   1  11 802.541 104.080   6
   8   1 -11 691.999 106.010   2
  -8   1  11 666.443 112.150   5
  -8   1  11 853.972 122.749   2
   8   1 -10 1590.15 95.8687   4
   8   1 -10 1963.19 163.854   2
  -8   1  10 1688.13 162.026   2
   8   1 -10 1706.26 133.653   6
  -8   1  10 1655.85 131.751   6
  -8   1  10 1639.29 155.014   5
   8   1 -10 1653.03 152.274   5
   8   1  -9 3113.55 126.668   4
   8   1  -9 3325.45 195.005   2
   8   1  -9 3054.96 166.456   6
  -8   1   9 3199.22 154.201   6
  -8   1   9 3140.98 198.212   5
   8   1  -9 3372.00 203.937   5
   8   1  -8 33591.1 582.295   2
   8   1  -8 33626.6 499.153   6
  -8   1   8 34256.8 435.451   6
  -8   1   8 33860.6 615.568   5
   8   1  -8 33764.9 611.235   5
   8   1  -7 10721.4 270.342   6
  -8   1   7 10731.7 209.341   6
  -8   1   7 10999.6 340.218   5
   8   1  -7 10659.1 335.592   5
   8   1  -6 24040.0 309.751   7
   8   1  -6 24230.2 378.846   6
  -8   1   6 24750.8 502.469   5
   8   1  -6 25013.7 496.602   5
  -8   1   5 2146.30 151.163   5
   8   1  -5 2179.57 150.997   5
   8   1  -5 2173.71 107.273   7
  -8   1   4 5556.57 162.966   4
   8   1  -4 5572.47 186.280   7
  -8   1   4 6337.86 247.529   5
   8   1  -4 5903.54 228.203   5
   8   1  -3 2398.09 133.415   4
  -8   1   3 2387.64 120.567   4
   8   1  -3 2266.16 130.741   7
  -8   1   3 2357.00 151.906   5
   8   1  -3 2044.58 133.982   5
   8   1  -2 26984.8 459.550   4
  -8   1   2 23208.3 397.267   4
   8   1  -2 25717.1 453.657   7
  -8   1   2 26118.5 475.134   5
   8   1  -2 25978.0 444.071   5
   8   1  -1 12542.6 329.792   4
  -8   1   1 11649.4 305.030   4
   8   1  -1 10695.4 312.463   7
   8   1  -1 11915.6 291.465   5
   8   1   0 36520.0 597.346   4
  -8   1   0 33696.4 558.152   4
   8   1   0 33638.1 576.091   2
   8   1   0 34011.1 587.567   7
   8   1   0 33346.7 589.000   1
   8   1   0 34049.6 468.752   5
  -8   1  -1 3164.26 188.669   4
   8   1   1 3224.05 191.048   4
   8   1   1 3244.15 166.233   3
   8   1   1 3050.80 184.181   2
   8   1   1 3045.19 193.259   7
   8   1   1 3334.21 193.799   1
   8   1   1 3108.49 140.251   5
  -8   1  -2 1702.32 148.707   4
   8   1   2 2064.71 165.153   4
   8   1   2 1928.13 156.330   2
   8   1   2 1730.35 155.592   7
   8   1   2 1948.26 162.074   1
   8   1   2 1626.50 98.0180   5
   8   1   2 1848.21 124.821   3
   8   1   3 728.660 83.9324   3
  -8   1  -3 762.782 121.497   4
   8   1   3 885.148 114.265   2
   8   1   3 691.864 113.873   1
   8   1   3 597.793 57.6897   5
  -8   1  -4 7699.90 344.357   4
   8   1   4 8415.12 330.599   2
   8   1   4 8476.84 347.472   1
   8   1   4 8115.05 246.622   3
  -8   1  -5 1173.33 153.825   4
   8   1   5 1301.60 144.947   2
   8   1   5 1235.09 99.8311   3
   8   1   5 1382.25 158.805   1
  -8   1  -6 2134.37 203.644   4
   8   1   6 3011.74 230.444   1
   8   1   6 2787.64 213.721   2
   8   1   6 2247.50 122.776   3
  -8   1  -7 813.175 143.689   4
   8   1   7 889.315 141.895   1
   8   1   7 1046.36 147.309   2
   8   1   7 653.929 61.6385   3
  -8   1  -8 198.886 99.2929   4
   8   1   8 79.3110 83.6530   1
   8   1   8 187.905 98.8159   2
   8   1   9 1660.39 197.760   1
  -8   1  -9 1719.72 220.853   4
   8   1   9 1597.71 195.230   2
   8   1  10 1913.41 218.001   1
  -8   1 -10 1486.81 213.246   4
   8   1  10 1998.00 218.239   2
  -8   1 -11-88.4659 102.850   4
   8   1  11-137.076 110.401   1
   8   1  11 175.799 108.739   2
   8   1  12 855.767 173.034   1
   8   1  12 764.489 157.088   2
   8   1  13 430.165 131.574   2
  -8   2  20 52.6731 138.909   2
  -8   2  19 1160.98 208.951   2
   8   2 -18 683.815 115.856   4
  -8   2  18 720.613 160.047   2
   8   2 -17 929.041 124.836   4
   8   2 -17 1017.10 165.746   6
  -8   2  17 676.578 163.466   2
   8   2 -16 2888.74 194.711   4
  -8   2  16 3313.91 282.785   2
   8   2 -16 3133.70 257.863   6
   8   2 -15 311.655 80.2504   4
   8   2 -15 404.624 96.3514   6
  -8   2  15 352.977 118.306   2
   8   2 -14 2076.11 97.1462   1
   8   2 -14 2086.90 152.702   4
  -8   2  14 1429.54 86.9316   4
   8   2 -14 2129.73 193.258   6
  -8   2  14 2114.55 211.328   2
   8   2 -13 1271.35 118.364   4
  -8   2  13 822.613 57.9880   4
   8   2 -13 1267.23 148.849   6
  -8   2  13 1242.81 172.162   2
   8   2 -12 7591.96 257.665   4
  -8   2  12 6838.19 338.802   2
  -8   2  12 6376.58 277.775   6
   8   2 -12 7035.83 312.943   6
   8   2 -11 4445.66 194.049   4
   8   2 -11 4482.10 239.125   2
  -8   2  11 4451.93 267.643   2
  -8   2  11 3799.80 199.865   6
   8   2 -11 4039.95 226.759   6
  -8   2  11 4696.53 258.147   5
   8   2 -10 10317.4 288.517   4
   8   2 -10 10597.2 349.820   2
  -8   2  10 9974.67 379.941   2
  -8   2  10 9618.08 286.975   6
   8   2 -10 10330.7 344.370   6
  -8   2  10 9775.70 365.671   5
  -8   2   9 792.724 82.5466   6
   8   2  -9 799.733 101.288   6
  -8   2   9 894.896 119.712   5
  -8   2   9 763.155 116.103   2
   8   2  -9 1042.05 115.307   2
   8   2  -9 839.941 116.840   5
  -8   2   8 5425.01 256.519   3
  -8   2   8 5121.12 255.393   2
  -8   2   8 4933.21 166.760   6
   8   2  -8 5306.28 229.734   6
   8   2  -8 5546.00 262.917   5
  -8   2   7 653.336 104.524   3
  -8   2   7 599.107 52.7252   6
   8   2  -7 637.526 83.6909   6
   8   2  -7 739.181 101.831   5
  -8   2   6 1441.49 63.8056   4
  -8   2   6 1257.87 57.8781   6
   8   2  -6 1391.78 111.074   6
   8   2  -6 1493.59 137.190   5
  -8   2   6 1344.20 128.142   3
  -8   2   5 2595.69 103.288   4
   8   2  -5 2659.58 167.408   5
  -8   2   5 2375.18 166.572   3
   8   2  -4 18122.5 377.744   1
  -8   2   4 18609.0 306.570   4
   8   2  -4 18188.5 372.466   7
   8   2  -4 18369.1 418.653   5
  -8   2   4 18559.6 447.771   3
  -8   2   3 2394.18 125.197   4
   8   2  -3 2461.60 147.376   7
   8   2  -3 2274.09 147.193   1
   8   2  -3 2270.02 149.669   5
  -8   2   3 2685.37 175.448   3
  -8   2   2 1227.62 101.753   4
   8   2  -2 1372.58 124.602   7
   8   2  -2 1176.44 111.251   1
   8   2  -2 1227.18 109.286   5
  -8   2   2 1270.30 126.164   3
  -8   2   1 666.975 98.7588   3
  -8   2   1 727.854 87.5805   4
   8   2  -1 460.689 84.1297   2
   8   2  -1 678.039 96.9644   7
   8   2  -1 777.451 103.309   1
   8   2  -1 661.923 82.5456   5
   8   2   0 5474.74 250.933   4
  -8   2   0 5361.03 233.825   4
   8   2   0 5441.63 251.282   2
   8   2   0 5362.73 252.041   7
   8   2   0 5344.12 246.136   1
   8   2   0 5485.73 207.031   5
  -8   2   0 5532.91 248.858   3
   8   2   1 819.612 84.3842   5
  -8   2  -1 886.538 101.011   3
   8   2   1 797.135 117.953   1
   8   2   1 939.314 119.314   4
  -8   2  -1 908.806 113.775   4
   8   2   1 776.361 119.866   7
   8   2   1 910.116 120.804   2
  -8   2  -2 9716.79 348.280   4
   8   2   2 9299.11 346.303   2
   8   2   2 9392.70 351.652   1
   8   2   2 9304.16 241.763   5
  -8   2  -2 9175.66 317.600   3
  -8   2  -3 4074.19 245.762   4
   8   2   3 4056.28 245.631   2
   8   2   3 4303.01 251.333   1
  -8   2  -3 4292.05 218.263   3
  -8   2  -4 6800.04 329.832   4
   8   2   4 6805.53 330.450   1
   8   2   4 6604.53 315.536   2
  -8   2  -4 6831.82 272.964   3
  -8   2  -5 1339.78 125.854   3
  -8   2  -5 1283.71 163.469   4
   8   2   5 1285.64 167.709   1
   8   2   5 1324.77 157.807   2
   8   2   5 1359.62 108.194   3
  -8   2  -6 2021.53 202.229   4
   8   2   6 2490.90 218.860   2
   8   2   6 2236.94 214.747   1
   8   2   6 1807.08 113.939   3
  -8   2  -6 2127.51 154.935   3
   8   2   7 311.170 49.9469   3
   8   2   7 726.753 149.100   1
  -8   2  -7 609.554 140.618   4
   8   2   7 343.081 96.9133   2
  -8   2  -8 2980.63 258.754   4
   8   2   8 3328.23 276.908   1
   8   2   8 3248.40 259.345   2
  -8   2  -9 994.196 170.001   4
   8   2   9 911.861 162.354   2
   8   2   9 1184.24 188.612   1
  -8   2 -10 988.177 198.950   4
   8   2  10 779.391 161.947   1
   8   2  10 720.362 146.175   2
  -8   2 -11 1200.04 203.896   4
   8   2  11 1066.96 189.768   1
   8   2  11 1071.69 187.059   2
   8   2  12 163.508 124.655   2
   8   2  13 362.642 140.557   2
   8   3 -19 460.844 150.699   6
  -8   3  19 328.171 136.593   2
   8   3 -18 670.111 121.383   4
   8   3 -18 467.929 138.931   6
  -8   3  18 550.897 149.529   2
   8   3 -17 228.392 91.5953   4
   8   3 -17 120.797 97.1781   6
  -8   3  17 174.110 134.332   2
   8   3 -16 310.583 90.9364   4
   8   3 -16 308.979 109.024   6
  -8   3  16 296.482 129.866   2
   8   3 -15 336.799 89.3456   4
   8   3 -15 256.083 103.752   6
  -8   3  15 390.106 135.865   2
  -8   3  14 5328.49 170.034   4
   8   3 -14 7161.02 302.915   4
  -8   3  14 6876.96 380.995   2
   8   3 -14 6647.89 349.720   6
  -8   3  13 1496.43 85.2262   4
   8   3 -13 2179.33 166.234   4
  -8   3  13 1993.33 217.071   2
   8   3 -13 1945.98 189.038   6
  -8   3  12 4998.16 137.831   4
   8   3 -12 5897.75 281.655   2
   8   3 -12 6450.47 271.201   4
  -8   3  12 5859.67 334.805   2
  -8   3  12 5376.25 260.332   6
   8   3 -12 6023.51 305.389   6
  -8   3  11 407.855 93.4668   3
   8   3 -11 390.313 29.4319   1
  -8   3  11 287.342 34.8329   4
   8   3 -11 293.296 70.5827   4
  -8   3  11 366.043 78.3223   6
   8   3 -11 534.869 108.279   6
  -8   3  11 536.506 116.394   2
   8   3 -11 490.460 98.6045   2
  -8   3  10 800.805 50.9956   4
  -8   3  10 814.428 123.336   3
   8   3 -10 1008.12 61.2118   1
  -8   3  10 776.335 98.5707   6
   8   3 -10 905.019 122.338   6
  -8   3  10 857.125 139.023   2
   8   3 -10 840.915 109.974   2
  -8   3   9 287.975 86.6424   3
   8   3  -9 314.201 43.6163   1
  -8   3   9 168.838 35.1656   4
  -8   3   9 293.127 63.1276   6
   8   3  -9 267.383 77.5049   6
  -8   3   9 215.381 93.8968   2
  -8   3   8 120.151 68.1154   3
   8   3  -8 54.3708 36.2605   1
  -8   3   8 98.6850 29.8731   4
   8   3  -8 181.839 74.4119   6
  -8   3   8 141.090 78.3879   2
  -8   3   7 697.817 108.240   3
  -8   3   7 623.193 58.8854   4
   8   3  -7 584.149 67.7738   1
   8   3  -7 595.601 97.4611   6
  -8   3   7 541.798 106.386   2
  -8   3   6 10897.6 234.952   4
  -8   3   6 10967.0 351.790   2
   8   3  -6 11488.1 277.789   1
   8   3  -6 10954.6 368.369   5
  -8   3   6 11479.4 384.549   3
  -8   3   5 1076.73 129.849   3
  -8   3   5 952.311 81.2619   4
   8   3  -5 900.075 89.4070   1
   8   3  -5 1024.81 119.701   5
  -8   3   4 116.137 74.5837   3
   8   3  -4 145.820 57.6489   1
  -8   3   4 251.736 54.6918   4
  -8   3   4 210.264 28.5862   6
   8   3  -4 176.815 73.6615   5
  -8   3   3 1124.97 124.527   3
  -8   3   3 1111.63 101.601   4
   8   3  -3 1290.52 118.762   1
  -8   3   3 1095.85 56.2385   6
   8   3  -3 1199.05 123.245   5
  -8   3   2 12398.5 334.231   4
   8   3  -2 12240.7 378.196   2
   8   3  -2 11870.0 369.971   7
  -8   3   2 12470.6 202.875   6
   8   3  -2 12273.5 357.099   1
  -8   3   2 12302.0 392.328   3
   8   3  -2 12417.9 357.239   5
   8   3  -1 667.460 91.4509   5
  -8   3   1 729.557 110.930   3
  -8   3   1 840.420 103.246   4
   8   3  -1 793.641 112.285   2
   8   3  -1 742.386 122.600   7
  -8   3   1 722.178 61.1289   6
   8   3  -1 879.145 114.822   1
   8   3   0 65.5415 55.9815   5
  -8   3   0 90.8686 59.5489   3
  -8   3   0 69.7615 59.6615   4
   8   3   0 37.0475 70.8418   2
   8   3   0 193.694 85.0789   7
  -8   3   0 48.8077 35.4309   6
   8   3   0 109.877 78.6973   1
  -8   3  -1 411.037 92.7138   3
   8   3   1 232.149 81.6287   2
  -8   3  -1 226.114 81.4672   4
   8   3   1 210.169 81.8752   1
  -8   3  -2 1068.24 130.361   3
  -8   3  -2 906.749 129.129   4
   8   3   2 808.533 135.273   1
   8   3   2 992.170 134.618   2
  -8   3  -3 634.449 117.669   3
   8   3   3 486.226 125.448   1
  -8   3  -3 352.572 94.3956   4
   8   3   3 327.294 103.746   2
  -8   3  -4 6597.92 329.860   4
   8   3   4 6717.57 346.751   1
   8   3   4 6609.14 333.488   2
  -8   3  -4 5990.87 283.131   3
  -8   3  -5 2188.70 207.918   4
   8   3   5 2355.21 220.952   1
   8   3   5 2433.00 216.272   2
   8   3   5 1963.67 138.745   3
  -8   3  -5 2127.01 172.013   3
  -8   3  -6 6614.97 360.839   4
   8   3   6 7006.17 380.082   1
   8   3   6 7403.44 374.733   2
  -8   3  -6 6917.12 299.761   3
  -8   3  -7 224.742 93.3283   4
   8   3   7 147.636 101.540   2
   8   3   7 179.309 112.113   1
  -8   3  -8 143.720 111.985   4
   8   3   8 456.139 129.836   2
   8   3   8 337.930 124.778   1
  -8   3  -9 0.66319 91.6431   4
   8   3   9 257.687 133.508   1
   8   3   9 128.954 123.638   2
  -8   3 -10 620.071 165.629   4
   8   3  10 1031.53 181.009   2
  -8   3 -11 178.087 123.780   4
   8   3  11 174.395 121.829   2
   8   3  12 600.289 181.753   2
   8   4 -18 154.926 91.4420   4
   8   4 -18 79.2795 102.368   6
   8   4 -17 509.629 121.369   4
   8   4 -17 219.638 126.109   6
  -8   4  17 262.521 124.185   2
   8   4 -16 1238.68 157.565   4
   8   4 -16 1233.18 184.952   6
  -8   4  16 1089.93 186.229   2
   8   4 -15 190.496 75.9179   4
   8   4 -15 275.769 110.129   6
  -8   4  15 172.853 108.241   2
   8   4 -14 733.508 120.995   4
   8   4 -14 806.120 133.563   6
  -8   4  14 651.859 150.914   2
   8   4 -13 811.181 123.763   4
   8   4 -13 644.973 128.131   6
  -8   4  13 283.066 113.888   2
  -8   4  12 3440.79 149.058   4
  -8   4  12 3891.10 282.761   2
   8   4 -12 4027.89 241.612   4
   8   4 -12 3703.01 217.098   2
   8   4 -12 3724.79 261.884   6
  -8   4  11 1336.02 96.6068   4
   8   4 -11 1304.59 145.038   4
   8   4 -11 1496.65 166.629   6
  -8   4  11 1486.83 177.914   2
   8   4 -11 1290.87 133.517   2
  -8   4  10 3070.93 235.338   2
   8   4 -10 3025.44 191.764   2
   8   4 -10 2893.26 216.076   6
   8   4  -9 399.861 97.3128   6
  -8   4   9 293.794 99.5639   2
  -8   4   8 31.0188 44.7664   4
   8   4  -8 2.62932 72.7462   6
  -8   4   8-15.2985 89.9490   2
   8   4  -8 74.4832 51.6209   1
  -8   4   7 377.681 70.8815   4
   8   4  -7 544.365 100.174   6
  -8   4   7 432.081 99.8782   2
   8   4  -7 445.267 66.5354   1
   8   4  -6 5405.13 208.961   1
  -8   4   6 5508.40 204.223   4
  -8   4   6 5389.67 266.122   2
  -8   4   5 4229.90 191.148   4
   8   4  -5 4174.84 198.423   1
  -8   4   5 4311.17 223.661   2
  -8   4   4 33987.1 546.457   4
   8   4  -4 31625.9 558.417   1
   8   4  -4 32468.5 624.248   2
  -8   4   3 4147.62 205.878   4
   8   4  -3 4299.34 222.155   1
   8   4  -3 4125.37 231.671   2
  -8   4   3 4321.62 150.182   6
  -8   4   2 5454.93 245.510   4
   8   4  -2 5356.74 255.529   1
   8   4  -2 5599.63 274.237   2
  -8   4   2 5623.80 177.608   6
   8   4  -1 707.203 113.214   1
  -8   4   1 593.095 97.4847   4
   8   4  -1 533.405 104.344   2
  -8   4   1 789.662 79.2999   6
   8   4   0 50.2947 74.7516   1
  -8   4   0-8.84197 64.8026   4
   8   4   0 52.5152 75.6317   2
  -8   4   0 24.1303 44.3131   6
   8   4   1 388.937 113.891   1
  -8   4  -1 342.919 90.0640   4
   8   4   1 333.094 89.3594   3
   8   4   1 374.175 100.126   2
  -8   4  -1 469.701 70.5545   6
  -8   4  -2 3819.24 248.264   4
   8   4   2 3630.89 264.157   1
   8   4   2 3577.19 254.319   2
   8   4   2 3235.13 214.452   3
  -8   4  -2 3698.82 193.239   6
  -8   4  -3 1581.67 182.407   4
  -8   4  -3 1447.75 134.116   6
   8   4   3 1229.22 137.484   3
   8   4   3 1411.47 167.073   2
   8   4   3 1606.62 190.655   1
   8   4   4 4064.78 285.390   1
  -8   4  -4 4224.59 282.436   4
   8   4   4 4297.39 290.755   2
   8   4   4 3935.02 218.479   3
  -8   4  -4 4531.87 243.253   6
  -8   4  -5 526.559 116.382   4
   8   4   5 640.425 102.154   3
   8   4   5 825.692 138.520   2
   8   4   5 590.891 138.710   1
  -8   4  -6 610.973 135.369   4
   8   4   6 902.339 166.772   2
   8   4   6 707.651 160.656   1
  -8   4  -7 454.629 128.027   4
   8   4   7 134.890 105.570   1
   8   4   7 258.321 100.779   2
  -8   4  -8 880.902 167.363   4
   8   4   8 1224.42 195.871   2
  -8   4  -9 164.626 111.965   4
   8   4   9 340.447 133.081   2
  -8   4 -10 85.9880 98.0833   4
   8   4  10 93.2558 109.286   2
   8   5 -19 233.328 112.477   4
   8   5 -18 1024.74 173.212   4
   8   5 -17 385.890 120.658   4
   8   5 -17 600.827 169.210   6
  -8   5  17 315.732 144.242   2
   8   5 -16 427.432 122.490   4
   8   5 -16 541.301 140.822   6
  -8   5  16 574.950 157.244   2
   8   5 -15 620.862 136.581   4
   8   5 -15 542.965 132.910   6
  -8   5  15 527.694 156.585   2
   8   5 -14 1909.66 197.016   4
   8   5 -14 1722.86 209.838   6
  -8   5  14 1982.48 249.184   2
   8   5 -13 1178.09 156.381   4
   8   5 -13 1014.55 154.673   6
  -8   5  13 1226.27 187.300   2
  -8   5  12 4774.99 329.838   2
   8   5 -12 5560.43 310.848   4
   8   5 -12 5557.07 333.758   6
   8   5 -11 715.791 124.211   4
   8   5 -11 636.048 131.937   6
  -8   5  11 457.374 122.184   2
   8   5 -10 201.993 96.0949   6
  -8   5  10-13.0944 89.2350   2
   8   5  -9 977.812 147.650   6
  -8   5   9 1323.50 166.488   2
  -8   5   8 7154.63 337.320   2
   8   5  -8 6759.60 339.145   6
   8   5  -7 2556.04 186.507   2
  -8   5   7 2399.36 163.804   4
  -8   5   7 2389.82 199.645   2
   8   5  -7 2649.76 213.696   6
  -8   5   6 12451.3 361.410   4
   8   5  -6 12226.3 391.896   2
  -8   5   6 11783.8 400.352   2
   8   5  -5 417.419 96.6370   2
  -8   5   5 311.831 79.4210   4
  -8   5   5 280.110 83.4819   2
  -8   5   4 2392.52 174.212   4
   8   5  -4 2586.48 197.182   2
  -8   5   3 303.336 88.1604   4
   8   5  -3 361.988 98.1941   2
  -8   5   3 367.887 67.6688   6
   8   5  -3 214.571 87.9568   1
   8   5  -2 10556.7 378.586   1
  -8   5   2 10309.1 370.736   4
   8   5  -2 10056.3 386.782   2
  -8   5   2 10955.6 299.157   6
   8   5  -1 2556.84 207.593   1
  -8   5   1 2454.77 195.389   4
   8   5  -1 2980.56 228.573   2
  -8   5   1 2568.21 152.430   6
   8   5   0 7120.06 342.085   1
  -8   5   0 6563.73 317.286   4
   8   5   0 6929.81 339.111   2
  -8   5   0 7348.96 262.178   6
  -8   5  -1 891.248 135.147   4
  -8   5  -1 1140.79 114.307   6
   8   5   1 1124.35 154.436   2
   8   5   1 940.053 152.121   1
  -8   5  -2 62.4002 56.9215   6
   8   5   2 98.2588 92.0265   2
   8   5   2-65.1129 92.5901   1
  -8   5  -2 84.3411 82.3773   4
  -8   5  -3 499.611 125.465   4
  -8   5  -3 584.737 95.1668   6
   8   5   3 463.185 136.465   2
  -8   5  -4 5244.00 328.242   4
   8   5   4 4814.68 326.539   2
  -8   5  -4 4922.20 263.772   6
  -8   5  -5 1426.61 193.109   4
  -8   5  -5 1230.82 149.260   6
   8   5   5 1522.80 199.946   2
  -8   5  -6 1709.21 211.738   4
  -8   5  -6 1777.78 185.158   6
   8   5   6 2032.82 238.058   2
  -8   5  -7 732.803 162.254   4
   8   5   7 622.974 151.935   2
  -8   5  -8 470.636 144.872   4
   8   5   8 289.243 139.211   2
  -8   5  -9 281.929 130.841   4
   8   5   9 627.612 188.582   2
   8   6 -18 341.241 124.243   4
   8   6 -17 1336.36 197.937   4
   8   6 -16 1910.17 218.722   4
   8   6 -15 801.720 165.911   4
   8   6 -15 849.330 166.769   6
  -8   6  15 849.694 198.023   2
   8   6 -14 903.704 155.647   4
   8   6 -14 1220.85 186.901   6
  -8   6  14 1159.52 214.537   2
   8   6 -13 399.949 108.754   4
   8   6 -13 515.717 143.990   6
  -8   6  13 426.643 158.941   2
   8   6 -12 260.281 75.1149   2
   8   6 -12 325.085 117.582   4
   8   6 -12 233.796 92.7839   6
  -8   6  12 87.7755 109.718   2
   8   6 -11 1078.20 129.696   2
   8   6 -11 1283.97 166.785   4
   8   6 -11 974.932 161.783   6
  -8   6  11 921.274 160.686   2
  -8   6  10 11386.6 492.429   2
   8   6 -10 12826.3 399.501   2
   8   6 -10 12115.8 498.865   6
  -8   6   9 2125.90 212.124   2
   8   6  -9 2136.41 168.345   2
   8   6  -9 2253.72 217.109   6
   8   6  -8 5926.82 284.521   2
  -8   6   8 5884.13 326.430   2
   8   6  -8 6234.13 352.868   6
  -8   6   7 1351.35 138.574   4
   8   6  -7 1307.55 147.960   2
   8   6  -7 1336.80 176.747   6
  -8   6   7 1205.36 153.051   2
  -8   6   6 1499.25 157.315   4
   8   6  -6 1694.60 158.314   2
  -8   6   6 1590.21 164.523   2
  -8   6   5 423.520 93.5075   4
   8   6  -5 507.633 106.866   2
  -8   6   5 365.840 92.0978   2
  -8   6   4 2496.48 193.021   4
   8   6  -4 2651.46 203.288   2
  -8   6   4 2330.70 176.751   2
  -8   6   3 589.619 113.656   4
   8   6  -3 674.124 123.004   2
  -8   6   3 568.428 86.8074   6
  -8   6   2 1673.04 175.618   4
   8   6  -2 1594.72 172.464   2
  -8   6   2 1614.03 137.711   6
  -8   6   1 1350.42 157.794   4
   8   6  -1 1167.56 164.677   2
  -8   6   1 1110.07 117.218   6
  -8   6   0 6361.77 337.859   4
   8   6   0 5861.85 336.146   2
  -8   6   0 6576.13 279.951   6
  -8   6  -1 2485.84 215.104   4
   8   6   1 2377.77 229.099   2
  -8   6  -1 2370.02 175.434   6
  -8   6  -2 11634.5 481.513   4
   8   6   2 12405.5 510.630   2
  -8   6  -2 12470.7 409.438   6
  -8   6  -3 1090.36 169.613   4
  -8   6  -3 1073.19 138.164   6
   8   6   3 1136.06 183.304   2
  -8   6  -4 243.721 105.958   4
  -8   6  -4 308.616 88.8925   6
   8   6   4 499.786 131.106   2
  -8   6  -5 316.570 119.653   4
  -8   6  -5 495.396 119.632   6
   8   6   5 256.586 118.487   2
  -8   6  -6 803.384 162.647   4
  -8   6  -6 986.034 154.092   6
   8   6   6 1192.86 203.585   2
  -8   6  -7 960.428 189.205   4
  -8   6  -7 948.339 161.165   6
   8   6   7 704.044 166.308   2
   8   7 -15 71.5804 105.899   4
   8   7 -14 1373.75 203.415   4
  -8   7  14 811.399 194.650   2
   8   7 -13 1122.12 191.989   4
   8   7 -13 960.861 189.217   6
  -8   7  13 815.738 186.033   2
   8   7 -12 2601.04 271.116   6
  -8   7  12 2169.54 254.420   2
   8   7 -12 2062.38 232.964   4
   8   7 -11 341.727 129.674   4
   8   7 -11 686.311 154.894   6
  -8   7  11 661.514 158.618   2
   8   7 -10 40.0778 61.8121   2
   8   7 -10 144.814 103.289   6
  -8   7  10-18.3153 100.735   2
   8   7  -9 888.363 125.739   2
   8   7  -9 996.785 169.041   6
  -8   7   9 1133.26 178.593   2
  -8   7   8 8986.30 424.419   2
   8   7  -8 10134.3 385.505   2
   8   7  -8 9191.10 459.595   6
  -8   7   7 4114.71 260.044   4
  -8   7   7 3850.70 270.445   2
   8   7  -7 4172.28 254.865   2
   8   7  -7 4206.90 315.503   6
  -8   7   6 6849.87 336.891   4
   8   7  -6 7532.30 349.606   2
  -8   7   6 7039.84 342.317   2
  -8   7   5 1462.39 163.532   4
   8   7  -5 1388.15 164.768   2
  -8   7   5 1189.01 151.598   2
  -8   7   4 579.031 119.631   4
   8   7  -4 488.952 125.072   2
  -8   7   4 469.922 102.798   2
  -8   7   3 1425.02 181.977   4
  -8   7   3 1481.60 154.955   6
   8   7  -3 1308.85 172.935   2
  -8   7   2 8236.83 395.323   4
   8   7  -2 8952.98 422.219   2
  -8   7   2 8070.73 333.496   6
  -8   7   1 4759.77 307.654   4
   8   7  -1 4720.26 318.086   2
  -8   7   1 4432.07 247.441   6
  -8   7   0 10040.4 456.365   4
  -8   7   0 10005.1 380.228   6
   8   7   0 10186.9 471.210   2
  -8   7  -1 828.487 153.612   4
  -8   7  -1 1092.75 137.847   6
   8   7   1 721.268 154.109   2
  -8   7  -2-216.628 112.326   4
  -8   7  -2-101.871 70.7354   6
   8   7   2-78.0778 105.751   2
  -8   7  -3 504.667 136.970   4
  -8   7  -3 642.672 118.733   6
   8   7   3 436.991 135.753   2
  -8   7  -4 2394.12 256.848   4
  -8   7  -4 2251.14 210.735   6
   8   7   4 2005.06 248.436   2
  -8   7  -5 667.061 157.608   4
  -8   7  -5 692.381 129.876   6
   8   7   5 500.455 146.188   2
  -8   7  -6 1078.12 210.786   4
  -8   7  -6 889.543 158.567   6
   8   8 -12 1007.96 194.943   4
  -8   8  12 1112.77 214.482   2
   8   8 -11 956.972 183.773   4
  -8   8  11 731.349 169.155   2
   8   8 -10 2886.17 288.646   6
  -8   8  10 2629.39 274.431   2
   8   8  -9 661.042 149.595   6
  -8   8   9 573.047 151.010   2
  -8   8   8 1006.34 147.779   4
   8   8  -8 877.336 135.156   2
   8   8  -8 849.200 162.251   6
  -8   8   8 761.291 158.499   2
  -8   8   7 428.186 122.214   4
   8   8  -7 402.115 104.484   2
   8   8  -7 368.974 121.392   6
  -8   8   7 351.239 111.593   2
  -8   8   6 1998.86 201.795   4
   8   8  -6 1958.71 196.395   2
  -8   8   6 1702.12 193.593   2
  -8   8   5 1756.34 202.200   4
   8   8  -5 1576.95 185.153   2
  -8   8   5 1585.81 175.250   2
  -8   8   4 6241.30 362.094   4
   8   8  -4 6103.79 350.755   2
  -8   8   4 6213.12 305.349   2
  -8   8   4 5994.90 326.811   6
  -8   8   3 1820.05 219.954   4
  -8   8   3 1475.66 168.415   6
   8   8  -3 1401.47 183.307   2
  -8   8   2 2084.26 234.302   4
  -8   8   2 1998.92 190.923   6
   8   8  -2 2171.20 228.556   2
  -8   8   1 495.134 135.998   4
  -8   8   1 443.525 103.927   6
   8   8  -1 457.573 140.821   2
  -8   8   0 922.672 187.969   4
  -8   8   0 841.782 133.163   6
   8   8   0 777.109 157.175   2
  -8   8  -1 825.456 154.873   4
  -8   8  -1 673.550 119.517   6
   8   8   1 617.456 159.895   2
  -8   8  -2 2931.80 286.119   4
   8   8   2 2622.65 275.559   2
  -8   8  -3 1022.54 196.742   4
   8   8   3 726.537 183.822   2
  -8   9  10 43.7372 142.608   2
  -8   9   9 136.162 120.686   2
  -8   9   8 495.334 140.424   2
  -8   9   7 330.918 120.414   4
  -8   9   6 2875.40 278.191   4
  -8   9   5 698.682 159.406   4
   8   9  -5 672.073 138.348   2
  -8   9   4 46.4060 111.818   4
   8   9  -4 145.016 104.262   2
  -8   9   3 724.305 169.752   4
   8   9  -3 602.874 160.260   2
  -8   9   2 2857.88 288.122   4
   8   9  -2 2203.46 252.153   2
  -8   9   1 193.014 107.805   4
   8   9  -1 296.792 145.392   2
  -8   9   0 1083.30 193.366   4
   8   9   0 1033.78 194.675   2
   8   9   1 195.488 121.598   2
  -9  -9   8-70.5961 122.642   7
  -9  -9   7 250.112 151.359   7
  -9  -9   6 638.634 167.024   7
  -9  -9   5 274.861 152.526   7
  -9  -9   4 596.926 189.129   7
  -9  -9   3 355.638 116.364   7
  -9  -9  -1 385.910 148.089   5
   9  -8 -14 841.561 160.065   3
   9  -8 -13 36.8559 161.990   7
   9  -8 -13 429.442 143.312   3
   9  -8 -12 267.252 133.359   3
   9  -8 -11 271.431 114.140   3
   9  -8 -10 1108.38 193.969   3
  -9  -8   9 279.470 121.377   7
   9  -8  -9 322.578 131.565   3
  -9  -8   9 276.836 116.775   5
  -9  -8   8 720.744 157.323   7
   9  -8  -8 768.178 165.230   3
  -9  -8   8 558.724 164.419   5
  -9  -8   7 120.981 113.751   7
   9  -8  -7 164.787 123.539   3
  -9  -8   7 144.854 127.601   5
  -9  -8   6 597.607 157.395   7
   9  -8  -6 535.996 142.092   3
  -9  -8   6 517.956 141.467   5
  -9  -8   5 864.158 160.773   7
   9  -8  -5 1035.95 192.887   3
  -9  -8   5 804.081 165.558   5
  -9  -8   4 730.766 159.697   7
   9  -8  -4 816.857 171.334   3
  -9  -8   4 722.777 169.757   5
  -9  -8   3 571.633 150.335   7
   9  -8  -3 654.725 155.632   3
  -9  -8   3 724.376 174.170   5
  -9  -8   2 173.883 119.600   7
   9  -8  -2-39.9193 114.180   3
  -9  -8   2 30.4520 103.945   5
  -9  -8   1 539.694 142.420   7
   9  -8  -1 611.789 165.538   3
  -9  -8   1 471.217 140.301   5
  -9  -8   0 197.034 105.627   7
   9  -8   0 391.751 125.234   3
  -9  -8   0 146.452 140.679   5
  -9  -8  -1 1339.20 225.924   7
   9  -8   1 1566.18 239.534   3
  -9  -8  -1 1316.59 216.847   5
   9  -8   2 431.114 147.017   3
  -9  -8  -2 368.747 141.849   5
  -9  -8  -3 612.556 154.426   5
   9  -7 -15 479.959 163.582   7
   9  -7 -15 141.359 117.084   3
   9  -7 -14 555.901 167.852   7
   9  -7 -14 664.709 171.021   3
  -9  -7  14 192.365 124.610   5
   9  -7 -13 287.370 158.682   7
   9  -7 -13 258.149 120.223   3
  -9  -7  13 113.340 120.116   5
   9  -7 -12 928.551 175.616   3
  -9  -7  12 1082.41 191.155   5
   9  -7 -11 830.789 197.737   3
  -9  -7  11 697.518 155.945   5
  -9  -7  10 2137.83 212.943   7
   9  -7 -10 1766.23 219.653   3
  -9  -7  10 2244.68 261.994   5
  -9  -7   9 23.6550 83.0870   7
   9  -7  -9-104.916 109.671   3
  -9  -7   9 76.9554 106.391   5
  -9  -7   8 1114.70 165.384   7
   9  -7  -8 916.227 173.895   3
  -9  -7   8 914.991 182.884   5
  -9  -7   7 511.851 124.131   7
   9  -7  -7 545.842 148.246   3
  -9  -7   7 612.577 157.453   5
  -9  -7   6 931.955 165.846   7
   9  -7  -6 1106.33 179.485   3
  -9  -7   6 1020.62 183.443   5
  -9  -7   5 1087.90 174.391   7
   9  -7  -5 1132.41 181.111   3
  -9  -7   5 1189.67 185.779   5
  -9  -7   4 790.418 150.780   7
   9  -7  -4 828.166 160.998   3
  -9  -7   4 762.656 157.894   5
  -9  -7   3 776.523 156.536   7
   9  -7  -3 1241.93 198.503   3
  -9  -7   3 1060.00 178.613   5
  -9  -7   2 186.270 96.9307   7
   9  -7  -2 479.913 139.780   3
  -9  -7   2 229.371 113.131   5
  -9  -7   1 690.555 158.226   7
   9  -7  -1 927.297 173.720   3
  -9  -7   1 1012.03 169.074   5
  -9  -7   0-89.8041 104.278   7
   9  -7   0 104.546 107.052   3
  -9  -7   0-58.4305 99.9863   5
  -9  -7  -1 1858.92 240.066   7
   9  -7   1 1850.59 236.704   3
  -9  -7  -1 1866.49 209.014   5
  -9  -7  -2 642.476 138.124   7
   9  -7   2 860.912 170.745   3
  -9  -7  -2 587.456 134.199   5
  -9  -7  -3 1298.92 211.885   7
   9  -7   3 1794.29 233.852   3
  -9  -7  -3 1184.94 170.498   5
  -9  -7  -4 84.9070 115.178   7
   9  -7   4 252.692 127.863   3
   9  -7   5 606.061 170.220   3
   9  -7   6 595.667 160.360   3
   9  -7   7 1343.58 207.574   3
  -9  -6  17 1122.08 205.252   5
   9  -6 -16 1338.51 184.565   7
  -9  -6  16 1803.80 237.783   5
   9  -6 -15 1003.37 172.186   7
   9  -6 -15 724.712 148.573   3
  -9  -6  15 828.626 182.152   5
   9  -6 -14 677.041 147.963   7
   9  -6 -14 969.250 155.967   3
  -9  -6  14 1053.46 197.634   5
   9  -6 -13 351.933 126.490   7
   9  -6 -13 275.845 109.195   3
  -9  -6  13 203.807 106.552   5
   9  -6 -12 122.405 91.4342   3
  -9  -6  12 133.753 108.651   5
  -9  -6  11 426.497 97.2684   7
   9  -6 -11 368.306 119.194   3
  -9  -6  11 350.729 126.695   5
  -9  -6  10 3932.60 244.861   7
   9  -6 -10 4077.11 297.380   3
  -9  -6  10 3393.69 290.109   5
  -9  -6   9 2393.05 197.270   7
   9  -6  -9 1872.96 207.725   3
  -9  -6   9 1794.46 216.207   5
  -9  -6   8 2302.80 198.465   7
   9  -6  -8 2285.90 227.914   3
  -9  -6   8 1986.36 226.237   5
  -9  -6   7 510.987 114.810   7
   9  -6  -7 559.857 124.870   3
  -9  -6   7 295.426 114.552   5
  -9  -6   6 392.553 103.901   7
   9  -6  -6 470.269 116.548   3
  -9  -6   6 511.238 130.949   5
  -9  -6   5 306.878 94.5882   7
   9  -6  -5 379.763 118.754   3
  -9  -6   5 222.851 102.701   5
  -9  -6   4 218.683 111.913   7
   9  -6  -4 183.572 118.976   3
  -9  -6   4 293.396 112.126   5
   9  -6  -4 120.404 66.6204   2
  -9  -6   3 395.880 110.849   7
   9  -6  -3 529.152 135.018   3
  -9  -6   3 540.134 123.915   5
   9  -6  -3 434.057 94.5782   2
  -9  -6   2 390.953 125.339   7
   9  -6  -2 362.634 123.600   3
  -9  -6   2 457.588 118.866   5
  -9  -6   1 2073.55 223.432   7
   9  -6  -1 1965.82 217.573   3
  -9  -6   1 2204.97 211.350   5
  -9  -6   0 2201.89 227.220   7
   9  -6   0 1981.58 222.476   3
  -9  -6   0 1925.91 197.103   5
   9  -6   1 3525.76 281.362   3
  -9  -6  -1 3957.61 272.203   5
  -9  -6  -1 3629.68 295.422   7
  -9  -6  -2 265.746 123.200   7
   9  -6   2 365.190 126.089   3
  -9  -6  -2 626.611 124.250   5
  -9  -6  -3 44.8488 102.943   7
   9  -6   3 451.540 134.723   3
  -9  -6  -3 291.667 99.6714   5
  -9  -6  -4 355.130 137.633   7
   9  -6   4 222.433 107.546   3
  -9  -6  -4 119.513 71.3086   5
  -9  -6  -5 614.607 157.330   7
   9  -6   5 1006.86 166.204   3
  -9  -6  -6 1013.13 202.150   7
   9  -6   6 1219.56 181.205   3
   9  -6   7 1754.28 213.887   3
  -9  -5  19 125.508 112.874   5
  -9  -5  18 1202.09 202.632   5
  -9  -5  17 635.948 150.389   5
   9  -5 -16 585.500 119.143   7
   9  -5 -16 647.968 128.871   3
  -9  -5  16 856.238 176.809   5
   9  -5 -15 414.883 110.400   7
   9  -5 -15 467.518 110.655   3
  -9  -5  15 610.892 142.149   5
   9  -5 -14 563.418 126.819   7
   9  -5 -14 288.347 97.3135   3
  -9  -5  14 369.475 124.046   5
   9  -5 -13 455.680 116.001   7
   9  -5 -13 447.280 106.067   3
  -9  -5  13 611.861 132.419   5
  -9  -5  12 3536.91 196.963   7
   9  -5 -12 3271.31 256.403   3
  -9  -5  12 3554.33 287.590   5
  -9  -5  11 785.592 104.283   7
   9  -5 -11 1059.23 148.549   3
  -9  -5  11 888.666 156.114   5
  -9  -5  10 672.532 104.153   7
   9  -5 -10 907.472 145.441   3
  -9  -5  10 959.461 155.674   5
  -9  -5   9 585.546 101.272   7
   9  -5  -9 399.504 87.9555   3
  -9  -5   9 407.414 107.361   5
  -9  -5   8 1052.45 124.260   7
   9  -5  -8 1259.15 159.035   3
  -9  -5   8 764.397 140.185   5
  -9  -5   7 500.582 99.5391   7
   9  -5  -7 334.495 93.1438   3
  -9  -5   7 539.027 127.634   5
  -9  -5   6 1680.64 160.752   7
   9  -5  -6 1833.00 194.508   3
  -9  -5   6 1668.81 185.146   5
   9  -5  -5 1594.50 153.853   2
  -9  -5   5 1357.25 151.450   7
   9  -5  -5 1703.34 190.120   3
  -9  -5   5 1729.48 184.921   5
   9  -5  -4 1347.28 139.452   2
  -9  -5   4 1549.00 163.590   7
   9  -5  -4 1601.49 178.570   3
  -9  -5   4 1556.29 178.116   5
  -9  -5   3 1732.63 175.194   7
   9  -5  -3 1601.06 143.110   2
   9  -5  -3 1799.79 195.686   3
  -9  -5   3 1864.25 187.520   5
   9  -5  -2 620.558 97.7096   2
  -9  -5   2 638.491 119.718   7
   9  -5  -2 605.330 122.458   3
  -9  -5   2 787.632 129.335   5
   9  -5  -1 1122.35 110.134   2
  -9  -5   1 1161.62 164.065   7
   9  -5  -1 1223.48 172.333   3
  -9  -5   1 907.895 135.123   5
   9  -5   0 352.420 69.6270   2
  -9  -5   0 471.431 114.372   7
   9  -5   0 347.952 101.774   3
  -9  -5   0 411.718 94.5970   5
  -9  -5  -1 889.985 147.777   7
   9  -5   1 968.331 157.218   3
  -9  -5  -1 871.605 127.320   5
   9  -5   2 750.358 64.6524   2
  -9  -5  -2 644.505 138.439   7
   9  -5   2 973.396 146.781   3
  -9  -5  -2 858.927 120.476   5
  -9  -5  -3 3156.98 276.417   7
   9  -5   3 3590.57 272.690   3
  -9  -5  -3 3657.71 226.792   5
  -9  -5  -4 461.056 133.603   7
   9  -5   4 340.947 109.207   3
  -9  -5  -4 439.912 85.8386   5
  -9  -5  -5 306.411 127.125   7
   9  -5   5 468.610 131.024   3
   9  -5   6 440.484 118.819   3
  -9  -5  -6 437.397 146.451   7
  -9  -5  -7 553.439 163.739   7
   9  -5   7 830.438 148.234   3
  -9  -5  -8 308.300 137.275   7
  -9  -4  20 629.884 155.884   5
  -9  -4  19 117.948 101.826   5
  -9  -4  18 174.920 98.1751   5
  -9  -4  17 286.989 113.023   5
   9  -4 -16 1471.85 157.573   7
   9  -4 -16 1433.64 158.598   3
  -9  -4  16 1049.67 173.307   5
   9  -4 -15 1021.04 133.282   7
   9  -4 -15 807.512 132.137   3
  -9  -4  15 906.833 159.773   5
   9  -4 -14 4383.10 252.765   7
   9  -4 -14 3873.45 257.081   3
  -9  -4  14 4577.64 318.999   5
   9  -4 -13 508.270 107.413   7
  -9  -4  13 584.549 70.3171   7
   9  -4 -13 519.767 106.053   3
  -9  -4  13 640.608 137.141   5
  -9  -4  12 776.998 81.6208   7
   9  -4 -12 736.777 117.454   3
  -9  -4  12 932.085 149.969   5
  -9  -4  11 614.460 78.0999   7
   9  -4 -11 619.263 116.832   3
  -9  -4  11 623.461 127.195   5
  -9  -4  10 348.112 64.2706   7
   9  -4 -10 472.866 106.435   3
  -9  -4  10 517.435 120.430   5
  -9  -4   9 2.67506 52.2448   7
   9  -4  -9 107.179 81.3416   3
  -9  -4   9 61.7460 86.1607   5
  -9  -4   8 232.412 71.0558   7
   9  -4  -8 299.290 85.4171   3
  -9  -4   8 353.834 100.377   5
  -9  -4   7 81.5816 63.5727   7
   9  -4  -7 45.8461 75.6294   3
  -9  -4   7 278.655 97.5662   5
   9  -4  -6 645.980 117.572   2
  -9  -4   6 826.868 104.163   7
   9  -4  -6 851.243 127.536   3
  -9  -4   6 712.303 118.107   5
   9  -4  -5 744.808 108.720   2
  -9  -4   5 623.455 103.881   7
   9  -4  -5 851.064 133.251   3
  -9  -4   5 720.733 123.218   5
   9  -4  -4 842.322 112.452   2
  -9  -4   4 603.498 98.0786   7
   9  -4  -4 849.105 128.530   3
  -9  -4   4 810.576 127.760   5
  -9  -4   3 865.933 123.382   7
   9  -4  -3 763.903 100.667   2
   9  -4  -3 928.313 137.804   3
  -9  -4   3 880.275 122.682   5
  -9  -4   2 128.020 85.7036   7
   9  -4  -2 240.333 72.4207   2
   9  -4  -2 144.012 77.4327   3
  -9  -4   2 211.711 88.9079   5
  -9  -4   1 503.696 109.350   7
   9  -4  -1 289.703 71.4683   2
   9  -4  -1 338.141 101.936   3
  -9  -4   1 236.986 76.9629   5
  -9  -4   0 75.3071 76.1354   7
   9  -4   0 62.5863 57.3106   2
   9  -4   0-38.4978 81.6802   3
  -9  -4   0 79.7264 72.0173   5
  -9  -4  -1 470.450 110.387   7
   9  -4   1 453.691 73.7139   2
   9  -4   1 298.977 103.593   3
  -9  -4  -1 185.140 70.5421   5
  -9  -4  -2 574.829 123.694   7
   9  -4   2 665.151 77.9724   2
   9  -4   2 778.725 130.393   3
  -9  -4  -2 561.288 92.5614   5
   9  -4   3 940.126 81.4911   2
  -9  -4  -3 643.094 140.430   7
   9  -4   3 899.013 137.206   3
  -9  -4  -3 685.273 98.6822   5
  -9  -4  -4 413.352 135.847   7
   9  -4   4 499.241 61.4997   2
   9  -4   4 650.144 119.701   3
  -9  -4  -4 552.652 81.2893   5
  -9  -4  -5 4635.73 336.210   7
   9  -4   5 3965.30 258.844   3
  -9  -4  -5 4674.42 203.358   5
  -9  -4  -6 976.687 179.849   7
   9  -4   6 1278.60 156.426   3
  -9  -4  -7 1450.90 208.954   7
   9  -4   7 1616.00 178.562   3
   9  -4   7 1305.51 160.990   1
   9  -4   8 517.045 120.363   1
  -9  -4  -8 176.090 110.420   7
   9  -4   9 300.243 99.0873   1
  -9  -4  -9 244.957 145.868   7
  -9  -3  20 843.842 161.146   5
  -9  -3  19 525.540 142.923   5
  -9  -3  18 276.831 98.6894   5
  -9  -3  17 105.083 84.7663   5
   9  -3 -17 125.473 72.5173   3
   9  -3 -16 1585.09 143.178   7
   9  -3 -16 1485.49 159.087   3
  -9  -3  16 1245.23 176.206   5
   9  -3 -15 322.112 77.6800   7
  -9  -3  15 220.898 102.305   5
   9  -3 -15 270.026 81.4582   3
   9  -3 -14 2950.54 209.361   3
  -9  -3  14 3002.85 244.728   5
   9  -3 -14 3112.39 185.697   7
   9  -3 -13 1234.79 124.758   7
  -9  -3  13 912.333 142.482   5
   9  -3 -13 1068.33 131.158   3
   9  -3 -12 3576.15 208.702   7
   9  -3 -12 3485.63 230.765   3
  -9  -3  12 3577.94 254.242   5
  -9  -3  11 341.226 38.9749   7
  -9  -3  11 299.646 101.148   5
   9  -3 -11 420.578 101.120   3
  -9  -3  10 334.824 45.6561   7
  -9  -3  10 209.435 88.9765   5
   9  -3 -10 252.206 86.3206   3
  -9  -3   9 236.904 50.7789   7
  -9  -3   9 145.610 81.9762   5
   9  -3  -9 242.256 83.1738   3
  -9  -3   8 380.041 61.9182   7
  -9  -3   8 230.665 83.0164   5
   9  -3  -8 237.441 85.1237   3
  -9  -3   7 467.096 72.5817   7
   9  -3  -7 600.730 107.700   2
  -9  -3   7 507.743 100.090   5
   9  -3  -7 715.606 113.907   3
  -9  -3   6 2820.88 149.761   7
   9  -3  -6 2828.89 204.690   3
  -9  -3   6 2765.84 202.162   5
   9  -3  -6 2779.33 188.334   2
  -9  -3   5 592.732 84.1795   7
   9  -3  -5 475.693 92.3751   2
  -9  -3   5 677.344 116.802   5
   9  -3  -5 640.584 109.678   3
  -9  -3   4 742.948 96.3772   7
   9  -3  -4 634.731 97.5424   2
   9  -3  -4 527.110 97.2176   5
  -9  -3   4 429.357 87.8927   5
   9  -3  -4 526.742 101.779   3
   9  -3  -3 2623.04 167.512   2
  -9  -3   3 2564.51 172.917   7
   9  -3  -3 2637.31 190.003   5
   9  -3  -3 2914.48 202.314   3
  -9  -3   3 2535.22 181.338   5
   9  -3  -2 524.805 92.3600   4
  -9  -3   2 385.398 90.1840   7
   9  -3  -2 535.909 95.5611   5
   9  -3  -2 600.610 87.4667   2
   9  -3  -2 647.223 111.493   3
  -9  -3   2 755.697 99.4581   5
   9  -3  -1 295.378 76.2150   4
  -9  -3   1 273.532 84.5308   7
   9  -3  -1 321.766 86.6264   5
   9  -3  -1 385.344 76.6792   2
   9  -3  -1 299.658 88.3672   3
  -9  -3   1 284.275 79.8288   5
   9  -3   0 196.616 81.0132   4
  -9  -3   0 128.523 81.7106   7
   9  -3   0 298.686 79.0925   5
   9  -3   0 160.829 83.8531   3
  -9  -3   0 113.830 59.0179   5
   9  -3   0 96.0421 51.0134   2
  -9  -3  -1 338.703 99.6302   7
   9  -3   1 303.061 84.8658   5
   9  -3   1 520.874 107.898   3
  -9  -3  -1 375.959 77.7404   5
   9  -3   1 310.459 63.6260   2
   9  -3   2 429.449 75.0159   2
  -9  -3  -2 364.586 105.703   7
   9  -3   2 307.762 68.6286   6
   9  -3   2 317.705 78.8687   5
   9  -3   2 393.626 92.7496   3
  -9  -3  -2 433.619 75.5719   5
   9  -3   3 3394.92 164.071   2
  -9  -3  -3 3281.37 250.187   7
   9  -3   3 3156.54 179.737   6
   9  -3   3 3590.65 229.269   3
   9  -3   3 2953.79 188.687   5
  -9  -3  -3 3317.65 168.926   5
  -9  -3  -4 1136.42 163.177   7
   9  -3   4 962.043 97.8629   2
   9  -3   4 939.156 111.855   6
  -9  -3  -4 1125.53 93.8279   5
   9  -3   4 1117.20 116.581   5
   9  -3   4 832.800 117.120   3
  -9  -3  -5 3153.59 267.059   7
   9  -3   5 3519.38 171.822   2
   9  -3   5 3168.29 215.039   3
   9  -3   5 2665.73 172.083   5
  -9  -3  -5 2983.10 132.969   5
  -9  -3  -6 240.860 99.6274   7
   9  -3   6 327.478 104.276   1
   9  -3   6 320.600 88.4700   3
   9  -3   6 307.038 69.7500   2
  -9  -3  -7 1195.94 178.266   7
   9  -3   7 1667.55 161.737   3
   9  -3   7 1563.86 183.314   1
   9  -3   8 29.7585 73.3661   1
  -9  -3  -8 138.606 107.373   7
   9  -3   9 342.945 117.383   1
  -9  -3  -9 0.37547 107.061   7
  -9  -3 -10 341.686 136.285   7
   9  -3  10 732.925 146.257   1
  -9  -2  20 553.284 131.582   5
  -9  -2  19 672.193 148.795   5
  -9  -2  18 194.061 85.7857   5
  -9  -2  17 1036.10 157.875   5
   9  -2 -17 725.075 104.415   3
   9  -2 -16 2879.58 151.683   7
  -9  -2  16 2641.88 231.912   5
   9  -2 -16 2699.69 197.089   3
   9  -2 -15 645.063 76.2301   7
  -9  -2  15 501.248 112.841   5
   9  -2 -15 591.809 100.868   3
   9  -2 -14 3019.29 147.947   7
  -9  -2  14 2464.39 212.640   5
   9  -2 -14 3058.31 202.925   3
   9  -2 -13 514.594 69.8188   7
  -9  -2  13 348.209 100.473   5
   9  -2 -13 462.684 100.263   3
   9  -2 -12 558.077 79.3443   7
  -9  -2  12 419.106 104.646   5
   9  -2 -12 649.537 103.309   3
  -9  -2  11 940.095 137.767   5
   9  -2 -11 889.096 116.154   3
  -9  -2  10 4273.37 254.630   5
   9  -2 -10 4623.47 245.295   3
   9  -2  -9 577.296 96.5571   3
  -9  -2   9 381.967 30.0098   7
  -9  -2   9 388.920 91.9118   5
   9  -2  -8 1025.38 123.141   3
  -9  -2   8 881.432 58.3768   7
   9  -2  -8 767.007 113.581   2
   9  -2  -8 966.337 127.266   5
  -9  -2   8 876.703 117.892   5
   9  -2  -7 947.268 120.072   3
  -9  -2   7 897.013 70.4650   7
   9  -2  -7 894.432 113.643   2
   9  -2  -7 842.706 120.650   5
  -9  -2   7 688.633 104.881   5
   9  -2  -6 1169.07 125.257   3
   9  -2  -6 1230.41 132.120   2
  -9  -2   6 1277.76 92.3257   7
  -9  -2   6 1348.94 135.069   5
   9  -2  -6 1253.63 135.428   5
   9  -2  -5 2631.65 169.153   2
  -9  -2   5 2692.17 138.791   7
   9  -2  -5 2387.96 176.832   5
  -9  -2   5 2521.05 174.574   5
   9  -2  -5 2415.73 175.086   3
  -9  -2   4 2619.08 150.883   7
   9  -2  -4 2715.72 131.296   4
   9  -2  -4 2744.42 169.135   2
   9  -2  -4 2785.99 182.166   5
  -9  -2   4 2654.15 173.646   5
   9  -2  -4 2956.46 192.947   3
   9  -2  -3 1268.88 103.971   4
  -9  -2   3 1352.03 121.677   7
   9  -2  -3 1441.66 134.041   5
   9  -2  -3 1391.09 121.855   2
   9  -2  -3 1457.56 139.731   3
  -9  -2   3 1114.34 116.588   5
   9  -2  -2 948.056 99.7994   4
  -9  -2   2 811.330 105.849   7
   9  -2  -2 921.552 110.174   5
  -9  -2   2 911.138 105.528   5
   9  -2  -2 916.856 114.262   3
  -9  -2   1 862.851 113.626   7
   9  -2  -1 778.941 96.4099   4
   9  -2  -1 664.630 52.2123   6
   9  -2  -1 878.194 107.783   5
  -9  -2   1 851.303 99.3889   5
   9  -2  -1 829.605 109.938   3
   9  -2   0 528.851 90.7667   4
  -9  -2   0 576.770 103.999   7
   9  -2   0 537.729 59.7208   6
   9  -2   0 668.591 97.4794   5
  -9  -2   0 551.012 82.2831   5
   9  -2   0 615.750 95.1354   3
   9  -2   1 5140.19 256.560   4
  -9  -2  -1 4572.71 259.930   7
   9  -2   1 4612.90 174.147   6
   9  -2   1 4870.89 221.228   5
   9  -2   1 5279.17 250.917   3
  -9  -2  -1 4825.76 199.286   5
   9  -2   2 839.279 97.3004   2
  -9  -2  -2 864.613 132.347   7
   9  -2   2 685.778 82.2025   6
   9  -2   2 776.415 94.7777   5
  -9  -2  -2 929.838 91.1688   5
   9  -2   2 803.065 109.706   3
   9  -2   3 613.853 86.4922   2
  -9  -2  -3 753.056 133.686   7
   9  -2   3 413.112 76.1748   6
   9  -2   3 579.059 82.3986   5
  -9  -2  -3 480.006 66.4378   5
   9  -2   3 588.132 98.4322   3
  -9  -2  -4 470.791 123.445   7
   9  -2   4 485.408 81.0655   2
   9  -2   4 236.471 71.2080   6
  -9  -2  -4 284.756 46.8436   5
   9  -2   4 382.257 65.8611   5
   9  -2   4 517.170 95.9170   3
   9  -2   5 2617.90 167.076   2
  -9  -2  -5 2409.96 230.340   7
   9  -2   5 2740.32 185.835   3
   9  -2   5 2620.54 206.286   1
   9  -2   5 2536.58 138.152   5
  -9  -2  -6 630.320 134.963   7
   9  -2   6 782.422 129.616   1
   9  -2   6 685.891 99.3092   2
   9  -2   6 523.428 93.2730   3
  -9  -2  -7 2860.60 267.631   7
   9  -2   7 3351.70 200.427   2
   9  -2   7 3122.63 238.715   1
   9  -2   7 2620.66 175.983   3
  -9  -2  -8 887.280 165.015   7
   9  -2   8 933.711 152.242   1
   9  -2   8 703.748 105.433   2
  -9  -2  -9 195.547 114.741   7
   9  -2   9 210.808 105.328   1
  -9  -2 -10 690.214 172.140   7
   9  -2  10 522.521 144.696   1
   9  -2  11 815.255 190.100   1
  -9  -1  20 380.556 117.486   5
  -9  -1  19 794.011 150.994   5
  -9  -1  18 4888.92 317.612   5
   9  -1 -18 4634.51 246.566   3
  -9  -1  17 1298.97 170.449   5
   9  -1 -17 1323.19 136.974   3
  -9  -1  16 1784.59 192.645   5
   9  -1 -16 1968.66 164.701   3
   9  -1 -15 350.737 87.8187   3
  -9  -1  15 182.016 93.1542   5
   9  -1 -14 1086.04 59.8307   7
  -9  -1  14 1277.31 158.132   5
   9  -1 -14 1273.93 133.662   3
   9  -1 -13 953.356 115.092   3
   9  -1 -13 816.347 50.6295   7
  -9  -1  13 1174.71 145.154   5
   9  -1 -12 4889.98 119.991   7
  -9  -1  12 5232.44 266.135   6
  -9  -1  12 4839.42 272.012   5
   9  -1 -12 5265.38 254.193   3
   9  -1 -11 990.121 114.205   3
   9  -1 -11 1087.52 63.2171   7
  -9  -1  11 1158.71 122.068   6
  -9  -1  11 926.568 129.857   5
  -9  -1  10 3898.70 233.494   5
   9  -1 -10 3542.09 207.752   3
   9  -1  -9 1445.76 151.121   2
  -9  -1   9 967.166 122.009   5
   9  -1  -9 1295.34 137.959   5
   9  -1  -9 1396.73 135.927   3
   9  -1  -8 3370.82 208.603   2
  -9  -1   8 3193.93 201.087   5
   9  -1  -8 3292.62 204.820   5
   9  -1  -8 3197.15 194.975   3
   9  -1  -7 1030.16 115.409   3
   9  -1  -7 1077.76 120.434   2
   9  -1  -7 1078.51 120.365   5
  -9  -1   7 997.951 119.154   5
   9  -1  -6 1966.30 76.3899   4
   9  -1  -6 2372.68 163.781   2
   9  -1  -6 2380.53 168.635   5
  -9  -1   6 2171.09 162.159   5
   9  -1  -6 2254.03 157.031   3
   9  -1  -5 319.272 70.1821   3
   9  -1  -5 326.145 43.6634   4
  -9  -1   5 290.249 56.4449   7
   9  -1  -5 414.707 87.3189   5
  -9  -1   5 334.516 75.7997   5
   9  -1  -5 296.727 70.7171   2
   9  -1  -4 386.450 76.3948   3
   9  -1  -4 290.895 48.5394   4
   9  -1  -4 339.419 58.9894   7
  -9  -1   4 322.935 60.2312   7
   9  -1  -4 327.028 71.0046   5
  -9  -1   4 191.135 66.5527   5
   9  -1  -3 2422.52 130.016   4
   9  -1  -3 2323.94 147.990   5
  -9  -1   3 2215.62 148.351   5
   9  -1  -3 2283.44 150.202   7
  -9  -1   3 2231.02 144.156   7
   9  -1  -3 2294.51 160.418   3
   9  -1  -2 1048.81 109.075   3
   9  -1  -2 1194.76 102.267   4
   9  -1  -2 1058.74 111.114   7
  -9  -1   2 907.535 103.405   7
   9  -1  -2 944.885 47.8936   6
  -9  -1   2 1241.65 111.970   5
   9  -1  -2 1010.41 100.912   5
   9  -1  -1 3118.13 172.419   4
   9  -1  -1 3218.08 191.630   7
  -9  -1   1 3074.73 187.758   7
   9  -1  -1 3145.73 108.464   6
  -9  -1   1 3292.20 169.466   5
   9  -1  -1 3525.20 177.947   5
   9  -1  -1 3108.41 183.444   3
   9  -1   0 1446.40 129.343   4
   9  -1   0 1401.82 133.455   7
   9  -1   0 1390.88 88.1725   6
  -9  -1   0 1269.15 107.005   5
   9  -1   0 1432.32 112.809   5
  -9  -1   0 1500.96 142.873   7
   9  -1   0 1395.67 126.512   3
   9  -1   1 3606.28 207.015   4
  -9  -1  -1 3446.58 214.054   7
   9  -1   1 3523.33 153.076   6
  -9  -1  -1 3499.85 164.775   5
   9  -1   1 3336.38 162.093   5
   9  -1   1 3498.87 194.494   3
   9  -1   2 1123.49 118.116   2
  -9  -1  -2 1124.53 144.875   7
   9  -1   2 931.943 91.6580   6
  -9  -1  -2 1062.04 89.1891   5
   9  -1   2 1248.16 100.114   5
   9  -1   2 1141.84 119.042   3
   9  -1   3 5153.58 236.414   2
  -9  -1  -3 5352.40 295.857   7
   9  -1   3 5568.74 231.352   6
  -9  -1  -3 5196.80 167.788   5
   9  -1   3 5509.31 241.276   3
   9  -1   3 5173.87 182.061   5
  -9  -1  -4 522.617 117.079   7
   9  -1   4 1110.49 126.568   2
   9  -1   4 659.684 94.2250   6
   9  -1   4 791.860 133.024   1
   9  -1   4 828.880 72.9324   5
   9  -1   4 1081.68 115.340   3
   9  -1   5 1149.18 157.923   1
  -9  -1  -5 1085.29 160.076   7
   9  -1   5 1398.38 134.419   2
   9  -1   5 970.804 65.8700   5
   9  -1   5 1171.53 112.422   3
   9  -1   6 150.585 19.7828   5
  -9  -1  -6 300.819 113.331   7
   9  -1   6 378.227 79.3803   2
   9  -1   6 278.236 93.6795   1
   9  -1   6 479.203 80.4894   3
   9  -1   7 1695.83 190.222   1
   9  -1   7 1954.28 169.805   2
   9  -1   7 1390.01 119.154   3
   9  -1   8 1731.71 169.622   2
   9  -1   8 1806.43 196.853   1
   9  -1   9 5603.78 340.242   1
   9  -1   9 5327.58 299.311   2
   9  -1  10 599.398 140.563   1
   9  -1  11 710.150 143.551   1
   9  -1  12 298.587 128.065   1
  -9   0  20 3305.44 277.451   5
  -9   0  19 225.546 89.7690   5
   9   0 -18 201.796 77.1968   3
  -9   0  18 229.203 93.9724   5
   9   0 -17 916.663 123.259   3
  -9   0  17 827.938 148.708   5
   9   0 -16 4163.45 172.839   4
  -9   0  16 3936.99 266.723   5
   9   0 -16 4474.72 243.763   3
   9   0 -15 1615.00 99.5880   4
  -9   0  15 1687.62 178.469   5
   9   0 -15 1493.70 144.521   3
   9   0 -14 1816.22 95.7313   4
  -9   0  14 1719.22 174.091   5
   9   0 -14 1846.05 159.153   3
   9   0 -13 458.209 92.9082   3
   9   0 -13 338.822 43.2023   4
  -9   0  13 332.721 104.831   5
   9   0 -12 2362.40 83.7927   4
  -9   0  12 2486.79 181.258   6
  -9   0  12 2385.20 189.966   5
   9   0 -12 2719.08 185.008   3
   9   0 -11 671.402 38.4303   4
   9   0 -11 694.879 98.2910   3
   9   0 -11 760.841 94.0438   6
  -9   0  11 510.424 88.0351   6
  -9   0  11 852.374 122.936   5
   9   0 -10 12529.7 316.904   6
  -9   0  10 11873.3 322.131   6
  -9   0  10 12682.1 406.775   5
   9   0 -10 12529.9 374.217   3
   9   0  -9 2917.89 194.969   2
   9   0  -9 3192.77 149.552   6
  -9   0   9 3015.68 154.864   6
  -9   0   9 3104.42 204.476   5
   9   0  -9 3043.14 199.714   5
   9   0  -9 2982.30 183.968   3
   9   0  -8 3654.38 82.8862   4
   9   0  -8 3432.79 201.889   2
   9   0  -8 3699.39 145.939   6
  -9   0   8 3488.83 208.809   5
   9   0  -8 3498.33 205.874   5
   9   0  -8 3455.06 94.5531   7
   9   0  -8 3738.15 204.152   3
   9   0  -7 866.287 51.3416   4
   9   0  -7 931.178 110.069   3
   9   0  -7 994.682 65.3691   7
   9   0  -7 801.901 66.7536   6
  -9   0   7 854.254 108.093   5
   9   0  -7 824.825 104.299   5
   9   0  -7 852.247 107.329   2
   9   0  -6 817.529 57.6926   4
   9   0  -6 787.150 101.983   3
   9   0  -6 829.758 67.9402   7
   9   0  -6 724.646 56.7593   6
  -9   0   6 710.375 96.2578   5
   9   0  -6 647.042 93.2281   5
   9   0  -5 1570.67 88.9143   4
   9   0  -5 1453.47 97.2148   7
   9   0  -5 1471.72 72.8921   6
  -9   0   5 1549.22 132.844   5
   9   0  -5 1800.05 136.533   5
   9   0  -5 1382.20 128.569   3
   9   0  -4 1684.07 101.350   4
   9   0  -4 1547.35 108.053   7
  -9   0   4 1699.24 133.524   5
   9   0  -4 1690.94 132.021   5
   9   0  -4 1621.00 132.178   3
   9   0  -3 769.925 95.6616   3
   9   0  -3 752.169 79.9122   4
   9   0  -3 764.077 86.6894   7
  -9   0   3 952.349 102.332   5
   9   0  -3 792.191 89.3645   5
   9   0  -2 649.858 89.1044   3
   9   0  -2 838.532 87.0021   4
   9   0  -2 794.981 96.3227   7
  -9   0   2 809.041 95.1434   5
   9   0  -2 873.441 93.7670   5
   9   0  -1 3618.09 198.062   7
   9   0  -1 3581.68 181.126   4
  -9   0   1 3541.15 176.754   5
   9   0  -1 3544.05 166.822   5
   9   0  -1 3367.22 187.435   3
  -9   0   0 3302.66 193.008   4
   9   0   0 3370.53 188.334   4
   9   0   0 3146.57 195.017   7
  -9   0   0 3150.74 163.449   5
   9   0   0 2962.05 148.705   5
   9   0   0 3111.72 176.307   3
  -9   0  -1 12582.8 387.772   4
   9   0   1 12725.5 384.444   4
   9   0   1 12212.4 360.442   2
   9   0   1 12569.6 396.095   7
  -9   0  -1 12055.2 301.107   5
   9   0   1 12733.1 291.300   5
   9   0   1 12427.6 343.994   3
   9   0   2 799.868 97.0574   3
  -9   0  -2 840.183 119.965   4
   9   0   2 746.848 110.368   1
   9   0   2 819.540 110.430   2
   9   0   2 693.271 73.2300   5
  -9   0  -3 2182.99 191.040   4
   9   0   3 2364.85 172.825   2
   9   0   3 2573.73 168.476   6
   9   0   3 2444.96 192.216   1
   9   0   3 2449.91 153.833   3
   9   0   3 2275.65 109.738   5
  -9   0  -4 353.173 109.514   4
   9   0   4 319.450 88.3031   2
   9   0   4 423.236 88.3089   6
   9   0   4 416.155 100.259   1
   9   0   4 285.065 40.1006   5
   9   0   4 298.597 67.6068   3
  -9   0  -5 1690.63 182.700   4
   9   0   5 1908.48 174.098   2
   9   0   5 1947.89 193.913   1
   9   0   5 1817.24 132.069   3
   9   0   6 1588.05 171.909   1
  -9   0  -6 1757.46 196.828   4
   9   0   6 1399.59 110.212   3
   9   0   6 1630.58 160.341   2
  -9   0  -7 4054.30 302.548   4
   9   0   7 4827.54 309.486   1
   9   0   7 4607.08 277.071   2
   9   0   7 3929.90 168.904   3
  -9   0  -8 731.978 137.605   4
   9   0   8 1041.33 164.524   1
   9   0   8 1220.61 163.098   2
  -9   0  -9 199.984 93.3629   4
   9   0   9 233.029 108.855   1
   9   0   9 342.034 111.419   2
   9   0  10 300.465 107.654   1
   9   0  10 617.327 131.710   2
   9   0  11 4619.23 349.136   1
   9   0  11 4466.91 312.894   2
   9   0  12 288.418 118.495   1
  -9   1  21 128.160 143.812   2
  -9   1  20 653.404 168.410   2
  -9   1  19 965.110 176.560   2
  -9   1  18 4898.60 346.505   2
  -9   1  18 4032.18 287.595   5
   9   1 -18 4650.94 258.000   3
   9   1 -17 1731.10 137.372   4
  -9   1  17 1443.11 178.687   5
  -9   1  17 1329.16 193.884   2
   9   1 -17 1498.56 152.696   3
   9   1 -16 1986.43 140.279   4
  -9   1  16 1314.09 164.572   5
  -9   1  16 1971.22 214.177   2
   9   1 -16 1840.25 164.009   3
   9   1 -15 396.293 68.4762   4
   9   1 -15 436.267 102.100   6
  -9   1  15 386.084 104.881   5
  -9   1  15 452.459 119.657   2
   9   1 -14 1243.11 101.943   4
   9   1 -14 1232.31 149.774   6
  -9   1  14 1298.08 156.342   5
  -9   1  14 1196.68 168.369   2
   9   1 -13 1064.00 90.0408   4
   9   1 -13 923.311 124.888   6
  -9   1  13 867.458 115.190   6
  -9   1  13 685.199 116.973   5
  -9   1  13 799.459 140.033   2
   9   1 -12 5645.76 179.769   4
  -9   1  12 5153.90 293.653   2
   9   1 -12 5455.44 257.528   6
  -9   1  12 4988.86 241.053   6
  -9   1  12 5143.64 280.707   5
   9   1 -11 1022.36 78.6777   4
   9   1 -11 1174.10 120.577   6
  -9   1  11 1080.83 108.668   6
  -9   1  11 964.155 129.876   5
   9   1 -10 3267.63 132.535   4
   9   1 -10 3814.41 222.931   2
   9   1 -10 3442.94 184.536   6
  -9   1  10 3119.67 163.716   6
  -9   1  10 3291.16 218.528   5
   9   1  -9 1426.24 114.283   6
  -9   1   9 1360.29 99.5014   6
  -9   1   9 1396.19 144.430   5
   9   1  -9 1342.42 144.251   5
   9   1  -9 1314.69 132.225   2
   9   1  -8 3363.34 198.559   2
   9   1  -8 3043.15 153.845   6
  -9   1   8 3038.96 122.356   6
  -9   1   8 3360.87 210.181   5
   9   1  -8 3452.57 207.136   5
   9   1  -7 1042.83 69.9057   7
   9   1  -7 1091.10 92.1711   6
  -9   1   7 1170.30 128.971   5
   9   1  -7 1220.88 124.219   5
   9   1  -6 2441.58 113.748   7
   9   1  -6 2175.42 121.123   6
  -9   1   6 2138.66 158.316   5
   9   1  -6 2381.25 166.433   5
   9   1  -5 306.577 55.2274   7
  -9   1   5 395.239 80.0020   5
   9   1  -5 330.727 75.0894   5
   9   1  -4 302.311 57.2793   4
  -9   1   4 329.465 54.2261   4
   9   1  -4 352.506 60.1041   7
  -9   1   4 266.453 69.7701   5
   9   1  -4 300.493 72.4998   5
   9   1  -3 2315.54 140.630   4
  -9   1   3 2258.30 128.095   4
   9   1  -3 2290.95 142.684   7
  -9   1   3 2333.32 157.061   5
   9   1  -3 2258.50 147.924   5
  -9   1   2 1098.55 103.839   4
   9   1  -2 1019.87 104.792   4
   9   1  -2 1033.34 109.015   7
  -9   1   2 1098.59 110.159   5
   9   1  -2 1020.15 102.609   5
  -9   1   1 3138.73 174.298   4
   9   1  -1 3256.85 187.682   4
   9   1  -1 3164.76 188.917   7
   9   1  -1 3418.16 167.383   5
  -9   1   0 1347.82 128.265   4
   9   1   0 1545.98 136.811   4
   9   1   0 1287.12 116.462   3
   9   1   0 1410.33 136.860   2
   9   1   0 1316.68 136.220   7
   9   1   0 1374.93 139.602   1
   9   1   0 1382.33 107.496   5
  -9   1  -1 3864.89 217.369   4
   9   1   1 3402.14 209.492   4
   9   1   1 3605.84 212.469   2
   9   1   1 3633.22 217.193   1
   9   1   1 3364.65 156.385   5
   9   1   1 3556.74 186.741   3
  -9   1  -2 1286.65 142.410   4
   9   1   2 1278.36 138.439   2
   9   1   2 1191.01 140.506   1
   9   1   2 1089.06 86.2870   5
   9   1   2 1070.95 107.243   3
  -9   1  -3 4701.22 267.011   4
   9   1   3 4784.86 259.008   2
   9   1   3 4845.07 275.778   1
   9   1   3 4496.80 148.430   5
   9   1   3 4919.35 214.039   3
   9   1   4 795.978 92.8575   3
   9   1   4 858.642 126.826   1
  -9   1  -4 985.065 145.213   4
   9   1   4 833.758 127.927   2
  -9   1  -5 1217.33 156.055   4
   9   1   5 1321.18 161.424   2
   9   1   5 1245.47 108.167   3
   9   1   5 1640.59 172.288   1
  -9   1  -6 336.278 109.713   4
   9   1   6 409.282 104.123   2
   9   1   6 578.225 126.559   1
   9   1   6 351.433 59.6044   3
  -9   1  -7 1749.45 204.502   4
   9   1   7 2351.11 228.963   1
   9   1   7 2075.89 202.755   2
  -9   1  -8 1242.17 189.552   4
   9   1   8 1733.80 204.406   1
   9   1   8 1973.32 203.110   2
  -9   1  -9 4716.86 349.360   4
   9   1   9 4861.99 341.681   1
   9   1   9 5319.65 333.288   2
   9   1  10 873.926 173.119   1
  -9   1 -10 693.432 164.848   4
   9   1  10 816.174 147.699   2
  -9   1 -11 569.799 150.636   4
   9   1  11 619.306 164.171   1
   9   1  11 958.462 171.302   2
   9   1  12 171.877 116.638   1
   9   1  12 91.2089 111.033   2
  -9   2  20 1153.67 218.743   2
  -9   2  19 702.230 187.213   2
  -9   2  18 149.747 115.269   2
   9   2 -17 837.479 116.360   4
   9   2 -17 971.461 161.898   6
  -9   2  17 786.105 156.478   2
   9   2 -16 3107.19 193.216   4
  -9   2  16 2749.78 260.531   2
   9   2 -16 3297.93 265.347   6
   9   2 -15 815.482 99.8012   4
   9   2 -15 612.820 127.608   6
  -9   2  15 666.644 146.572   2
   9   2 -14 2598.47 160.557   4
  -9   2  14 2275.97 224.775   2
   9   2 -14 2318.53 201.288   6
   9   2 -13 513.417 81.1184   4
   9   2 -13 424.086 96.7584   6
  -9   2  13 362.248 93.0153   6
  -9   2  13 472.081 117.911   2
   9   2 -12 535.913 101.104   6
  -9   2  12 603.098 94.5865   6
   9   2 -12 543.288 87.5931   4
  -9   2  12 593.216 118.782   5
  -9   2  12 577.770 130.552   2
   9   2 -11 935.954 99.2742   4
  -9   2  11 849.409 101.702   6
   9   2 -11 961.172 120.673   6
  -9   2  11 997.150 141.983   5
  -9   2  11 951.155 146.558   2
   9   2 -10 4651.98 238.426   2
  -9   2  10 4547.10 265.311   2
  -9   2  10 4602.13 191.442   6
   9   2 -10 4906.09 237.032   6
  -9   2  10 4812.11 265.868   5
   9   2  -9 604.013 105.099   2
  -9   2   9 517.237 108.685   2
  -9   2   9 413.973 61.4788   6
   9   2  -9 489.959 84.9891   6
  -9   2   9 371.723 94.4134   5
  -9   2   8 836.034 66.3102   6
   9   2  -8 740.231 95.3066   6
  -9   2   8 588.359 103.299   5
  -9   2   7 673.412 37.6350   4
  -9   2   7 857.322 118.010   3
  -9   2   7 609.791 44.2260   6
   9   2  -7 565.847 81.0490   6
   9   2  -7 705.561 105.762   5
  -9   2   6 1330.16 69.3698   4
  -9   2   6 1355.11 135.884   3
   9   2  -6 1030.00 118.041   5
  -9   2   5 2738.13 115.721   4
   9   2  -5 2731.71 150.400   7
   9   2  -5 2536.87 173.088   5
  -9   2   5 2735.18 187.047   3
  -9   2   4 2546.29 125.526   4
   9   2  -4 2817.88 160.298   7
   9   2  -4 2866.78 166.602   1
   9   2  -4 2818.94 176.742   5
  -9   2   4 2950.15 195.814   3
  -9   2   3 1259.28 100.383   4
   9   2  -3 1303.28 122.975   7
   9   2  -3 1301.41 122.824   1
   9   2  -3 1224.25 118.648   5
  -9   2   3 1403.22 139.334   3
  -9   2   2 1008.54 119.371   3
  -9   2   2 995.108 101.475   4
   9   2  -2 821.435 104.343   7
   9   2  -2 846.305 106.963   1
   9   2  -2 743.667 92.9101   5
  -9   2   1 1117.08 116.664   4
  -9   2   1 958.303 123.402   3
   9   2  -1 891.398 117.153   4
   9   2  -1 691.420 109.408   2
   9   2  -1 835.417 114.197   7
   9   2  -1 848.873 111.603   1
   9   2  -1 836.626 98.4777   5
  -9   2   0 608.524 105.235   3
   9   2   0 598.024 105.529   4
  -9   2   0 507.443 89.8723   4
   9   2   0 584.777 105.425   2
   9   2   0 547.412 101.537   7
   9   2   0 570.951 101.289   1
   9   2   0 512.957 73.9706   5
  -9   2  -1 4132.66 232.618   4
   9   2   1 4573.41 249.158   1
   9   2   1 4284.03 246.825   2
   9   2   1 4508.21 189.558   5
  -9   2  -1 4295.21 229.044   3
   9   2   2 974.014 133.919   1
   9   2   2 799.285 85.8451   5
  -9   2  -2 966.172 118.470   3
  -9   2  -2 865.828 123.735   4
   9   2   2 845.122 123.942   2
  -9   2  -3 581.793 102.561   3
  -9   2  -3 410.790 88.9520   4
   9   2   3 511.381 107.531   2
   9   2   3 613.591 119.833   1
   9   2   4 301.215 63.6047   3
  -9   2  -4 347.960 73.4775   3
  -9   2  -4 535.970 117.616   4
   9   2   4 521.158 124.999   2
   9   2   4 248.277 101.735   1
  -9   2  -5 2832.53 235.718   4
   9   2   5 2600.12 230.533   1
   9   2   5 2591.16 222.221   2
   9   2   5 2623.28 155.892   3
   9   2   6 574.350 74.6185   3
  -9   2  -6 633.149 137.458   4
   9   2   6 622.487 141.167   1
   9   2   6 617.621 126.947   2
  -9   2  -7 2745.15 255.039   4
   9   2   7 3175.00 266.866   1
   9   2   7 3036.88 257.654   2
   9   2   8 873.211 161.322   1
  -9   2  -8 721.317 156.340   4
   9   2   8 1011.92 165.803   2
  -9   2  -9 200.874 124.034   4
   9   2   9 281.175 117.367   1
  -9   2 -10 464.447 153.529   4
   9   2  10 924.948 172.433   2
   9   2  10 808.046 167.582   1
   9   2  11 845.684 166.976   1
   9   2  11 675.852 164.281   2
   9   2  12 921.112 192.264   2
   9   3 -19 537.633 151.938   6
  -9   3  19 679.576 190.493   2
   9   3 -18 160.657 77.1163   4
   9   3 -18 268.951 118.633   6
  -9   3  18 207.474 130.271   2
   9   3 -17 141.635 69.9848   4
   9   3 -17 153.714 92.3768   6
  -9   3  17 13.7735 100.026   2
   9   3 -16 1749.68 162.766   4
   9   3 -16 1875.42 211.191   6
  -9   3  16 1843.87 234.499   2
   9   3 -15 368.163 87.4955   4
   9   3 -15 137.778 77.3552   6
  -9   3  15 297.196 114.986   2
   9   3 -14 2975.97 194.543   4
  -9   3  14 3252.37 271.523   2
   9   3 -14 3510.62 251.644   6
   9   3 -13 1050.90 122.288   4
   9   3 -13 1136.06 148.305   6
  -9   3  13 1130.55 169.516   2
   9   3 -12 2996.46 192.527   4
  -9   3  12 3198.71 249.274   2
   9   3 -12 3161.00 95.1471   1
  -9   3  12 2949.08 186.359   6
   9   3 -12 2938.33 214.525   6
   9   3 -11 403.514 92.8924   4
  -9   3  11 263.526 70.4433   6
   9   3 -11 421.226 47.9528   1
   9   3 -11 317.873 91.4477   6
  -9   3  11 459.678 116.494   2
  -9   3  10 297.069 66.6572   6
   9   3 -10 414.042 97.7038   6
   9   3 -10 358.524 48.7674   1
  -9   3  10 302.104 104.581   2
  -9   3   9 88.7540 19.2262   4
  -9   3   9 241.294 57.1093   6
   9   3  -9 115.345 67.0356   6
   9   3  -9 205.223 46.5954   1
  -9   3   9 216.750 95.4740   2
  -9   3   8 248.816 34.5087   4
  -9   3   8 286.198 50.7444   6
   9   3  -8 298.170 79.1798   6
   9   3  -8 285.829 56.4223   1
  -9   3   8 300.514 92.9165   2
  -9   3   7 468.541 52.3564   4
  -9   3   7 551.404 53.0108   6
   9   3  -7 424.069 89.2613   6
   9   3  -7 685.351 78.5106   1
  -9   3   6 2452.70 118.572   4
   9   3  -6 2646.07 156.515   1
  -9   3   6 2247.27 77.4358   6
  -9   3   5 669.747 74.3708   4
   9   3  -5 631.450 87.1954   1
   9   3  -5 546.745 99.1789   5
  -9   3   4 679.324 79.5377   4
   9   3  -4 563.806 88.2774   1
   9   3  -4 661.040 98.1550   5
  -9   3   3 2487.84 151.941   4
   9   3  -3 2509.16 186.844   2
   9   3  -3 2341.60 175.241   7
   9   3  -3 2517.71 168.170   1
   9   3  -3 2805.19 183.044   5
   9   3  -2 555.907 85.0509   5
  -9   3   2 601.699 92.6879   4
   9   3  -2 710.275 115.276   2
   9   3  -2 664.062 107.064   7
   9   3  -2 704.422 104.636   1
   9   3  -1 202.925 64.8421   5
  -9   3   1 319.589 80.7579   4
   9   3  -1 283.039 84.5465   2
   9   3  -1 302.616 98.4842   7
   9   3  -1 169.808 77.7637   1
   9   3   0 94.9310 55.1726   5
  -9   3   0 197.828 68.3718   4
   9   3   0 97.5116 77.2479   2
   9   3   0 367.434 94.6657   1
  -9   3  -1 309.289 86.7037   4
   9   3   1 239.832 97.9921   2
   9   3   1 145.153 81.0075   1
  -9   3  -2 454.533 114.371   4
   9   3   2 231.609 93.7678   1
   9   3   2 350.994 113.040   2
  -9   3  -3 3891.40 255.709   4
   9   3   3 3324.88 249.064   1
   9   3   3 3500.30 252.183   2
   9   3   4 1131.79 167.089   1
  -9   3  -4 1085.39 151.565   4
   9   3   4 1086.91 154.764   2
  -9   3  -5 2915.58 243.712   4
   9   3   5 2723.37 244.275   1
   9   3   5 3436.50 261.727   2
   9   3   5 2689.45 169.846   3
   9   3   6 470.032 139.197   1
   9   3   6 208.605 55.2830   3
  -9   3  -6 205.651 100.729   4
   9   3   6 292.671 119.257   2
  -9   3  -7 1618.40 207.341   4
   9   3   7 1864.11 219.155   2
   9   3   7 1559.60 220.448   1
  -9   3  -8 145.790 108.488   4
   9   3   8 184.098 122.228   2
   9   3   8-18.8220 103.893   1
  -9   3  -9 235.066 121.361   4
   9   3   9 10.7690 117.405   1
   9   3   9 202.162 111.163   2
  -9   3 -10 392.967 147.038   4
   9   3  10 584.058 169.174   1
   9   3  10 300.570 141.925   2
   9   3  11 887.990 178.428   2
   9   4 -18 428.981 109.870   4
   9   4 -18 343.966 130.464   6
  -9   4  18 269.934 148.702   2
   9   4 -17 429.064 109.502   4
   9   4 -17 358.987 123.881   6
  -9   4  17 262.964 143.069   2
   9   4 -16 1687.95 175.207   4
   9   4 -16 1708.00 219.193   6
  -9   4  16 1790.99 228.363   2
   9   4 -15 822.419 127.108   4
   9   4 -15 1225.01 173.248   6
  -9   4  15 1126.09 192.646   2
   9   4 -14 4456.23 271.994   4
  -9   4  14 4380.99 326.654   2
   9   4 -14 4584.81 305.987   6
   9   4 -13 700.943 119.220   4
   9   4 -13 685.473 129.060   6
  -9   4  13 705.025 147.712   2
  -9   4  12 639.851 56.3828   4
   9   4 -12 726.259 118.393   4
  -9   4  12 540.225 98.7060   6
   9   4 -12 883.524 134.483   6
  -9   4  12 924.978 157.397   2
  -9   4  11 503.710 55.4658   4
  -9   4  11 517.114 56.9429   4
   9   4 -11 516.667 108.897   6
  -9   4  11 559.711 130.450   2
  -9   4  10 247.486 49.5786   4
   9   4 -10 474.547 107.739   6
   9   4 -10 368.034 51.4943   1
  -9   4  10 283.718 107.940   2
   9   4  -9 23.5499 43.0066   1
  -9   4   9 34.6947 37.1912   4
   9   4  -9 32.2069 72.2079   6
  -9   4   9 158.143 94.4666   2
   9   4  -8 463.750 70.8678   1
  -9   4   8 342.182 59.4735   4
   9   4  -8 293.042 84.5277   6
  -9   4   8 327.933 99.6658   2
   9   4  -7 220.951 60.0588   1
  -9   4   7 133.099 47.0324   4
   9   4  -7 90.6283 68.6713   6
  -9   4   7 168.956 78.9731   2
  -9   4   6 793.306 88.2067   4
   9   4  -6 928.465 103.807   1
  -9   4   5 802.444 95.3119   4
   9   4  -5 813.481 102.484   1
   9   4  -4 700.445 116.908   2
  -9   4   4 712.305 94.9554   4
   9   4  -4 710.550 98.3214   1
  -9   4   4 669.903 57.6719   6
   9   4  -3 844.841 121.136   1
  -9   4   3 869.489 108.739   4
   9   4  -3 861.335 123.674   2
  -9   4   3 826.283 66.2746   6
   9   4  -2 129.698 79.0331   1
  -9   4   2 206.370 75.9716   4
  -9   4   2 31.6053 32.4021   6
   9   4  -2 104.613 72.3633   2
   9   4  -1 357.492 100.642   1
  -9   4   1 295.033 92.7566   4
   9   4  -1 351.467 104.560   2
  -9   4   1 256.771 51.8066   6
   9   4   0 104.120 78.0237   1
  -9   4   0 224.509 82.2749   4
   9   4   0 14.0228 79.1182   2
  -9   4   0-6.62949 39.2453   6
   9   4   1 623.264 130.892   1
  -9   4  -1 529.402 110.512   4
   9   4   1 367.901 106.719   2
  -9   4  -1 544.894 76.1806   6
   9   4   2 723.527 132.436   1
  -9   4  -2 915.246 139.792   4
   9   4   2 609.381 126.640   2
   9   4   3 946.025 152.201   1
  -9   4  -3 987.723 153.336   4
   9   4   3 692.208 108.828   3
   9   4   3 1075.80 160.686   2
  -9   4  -4 659.461 137.790   4
   9   4   4 632.195 107.508   3
   9   4   4 715.048 148.003   2
   9   4   4 592.609 141.019   1
   9   4   5 4489.55 328.953   1
  -9   4  -5 4270.13 300.708   4
   9   4   5 4020.45 301.385   2
  -9   4  -6 1114.23 179.166   4
   9   4   6 1366.92 196.746   2
   9   4   6 1305.11 201.407   1
  -9   4  -7 1198.67 195.083   4
   9   4   7 1593.19 236.747   1
   9   4   7 1539.76 205.397   2
  -9   4  -8 274.465 107.513   4
   9   4   8 458.895 140.357   2
  -9   4  -9 391.357 137.168   4
   9   4   9 173.555 136.152   2
   9   5 -18 1881.20 216.254   4
   9   5 -17 663.494 147.732   4
   9   5 -17 619.032 160.640   6
  -9   5  17 625.970 186.719   2
   9   5 -16 738.269 135.816   4
   9   5 -16 645.594 156.192   6
  -9   5  16 659.699 161.959   2
   9   5 -15 388.951 111.061   4
   9   5 -15 459.226 116.570   6
  -9   5  15 442.823 136.419   2
   9   5 -14 357.711 104.103   4
   9   5 -14 680.757 149.428   6
  -9   5  14 347.332 138.664   2
   9   5 -13 496.752 117.181   4
   9   5 -13 553.885 129.784   6
  -9   5  13 458.054 137.612   2
   9   5 -12 3641.44 259.221   4
  -9   5  12 4053.99 308.012   2
   9   5 -12 3735.02 275.137   6
   9   5 -11 877.984 141.093   6
  -9   5  11 1082.54 162.217   2
  -9   5  10 830.101 96.8496   4
   9   5 -10 626.363 128.812   6
  -9   5  10 937.767 152.164   2
  -9   5   9 294.709 69.5863   4
   9   5  -9 406.224 111.406   6
  -9   5   9 386.884 111.554   2
  -9   5   8 1029.97 105.071   4
   9   5  -8 1111.24 149.045   6
  -9   5   8 851.169 137.694   2
   9   5  -7 516.099 108.299   2
  -9   5   7 646.718 96.1865   4
  -9   5   7 372.495 98.0132   2
   9   5  -6 2022.32 150.174   1
  -9   5   6 1955.62 149.476   4
   9   5  -6 1993.54 178.463   2
  -9   5   6 1702.47 162.185   2
   9   5  -5 1927.02 163.067   1
  -9   5   5 1684.96 142.110   4
   9   5  -5 1549.32 158.989   2
  -9   5   4 1614.52 145.603   4
   9   5  -4 1505.35 159.632   2
  -9   5   4 1406.06 102.775   6
   9   5  -4 1455.52 152.488   1
  -9   5   3 1761.44 158.954   4
   9   5  -3 1864.23 183.206   2
  -9   5   3 1896.34 117.368   6
   9   5  -3 1785.83 165.280   1
  -9   5   2 507.461 106.833   4
   9   5  -2 535.485 109.424   2
  -9   5   2 582.761 75.1083   6
   9   5  -2 484.126 112.341   1
  -9   5   1 1121.69 140.771   4
   9   5  -1 1180.92 155.056   2
  -9   5   1 1226.59 104.135   6
   9   5  -1 1102.14 150.676   1
  -9   5   0 488.788 111.452   4
   9   5   0 544.491 121.643   2
  -9   5   0 477.138 73.9495   6
   9   5   0 552.511 132.154   1
  -9   5  -1 873.202 137.116   4
   9   5   1 855.554 145.035   2
  -9   5  -1 952.487 104.597   6
   9   5   1 906.784 153.399   1
  -9   5  -2 871.014 140.067   4
  -9   5  -2 896.209 104.408   6
   9   5   2 918.771 157.507   2
   9   5   2 669.729 136.940   1
   9   5   3 3372.85 283.928   1
  -9   5  -3 3432.55 280.349   4
   9   5   3 3389.31 278.729   2
  -9   5  -3 3425.16 216.600   6
  -9   5  -4 541.673 127.309   4
  -9   5  -4 323.789 87.4104   6
   9   5   4 402.125 109.116   2
   9   5   4 528.089 147.067   1
  -9   5  -5 623.859 142.621   4
   9   5   5 483.254 136.274   2
  -9   5  -6 594.759 151.307   4
   9   5   6 772.357 157.645   2
  -9   5  -7 822.294 182.166   4
   9   5   7 771.291 181.170   2
  -9   5  -8 660.446 166.371   4
   9   5   8 657.761 166.319   2
   9   6 -18 1246.28 194.638   4
   9   6 -17 1107.50 186.301   4
   9   6 -16 1853.67 222.175   4
   9   6 -15 751.253 167.854   6
   9   6 -15 1030.73 172.032   4
  -9   6  15 1082.08 210.455   2
   9   6 -14 1049.79 175.136   4
   9   6 -14 1115.42 182.830   6
  -9   6  14 1047.23 199.210   2
   9   6 -13 59.9510 86.5319   4
   9   6 -13 38.8961 83.4295   6
  -9   6  13 93.9060 102.780   2
   9   6 -12 196.050 102.199   4
   9   6 -12 299.205 117.037   6
  -9   6  12 273.970 123.207   2
   9   6 -11 306.198 86.6337   2
   9   6 -11 352.960 112.762   6
  -9   6  11 139.473 98.1584   2
   9   6 -10 3740.61 233.186   2
  -9   6  10 3761.00 211.676   4
  -9   6  10 3639.55 283.608   2
   9   6 -10 3816.70 289.666   6
  -9   6   9 1938.11 160.550   4
   9   6  -9 2066.09 179.136   2
  -9   6   9 2170.55 217.900   2
   9   6  -9 2407.86 233.312   6
  -9   6   8 2105.13 171.773   4
   9   6  -8 2214.86 191.699   2
   9   6  -8 2317.48 223.976   6
  -9   6   8 2141.10 210.788   2
   9   6  -7 324.168 101.037   2
  -9   6   7 350.831 82.4804   4
  -9   6   7 263.339 105.368   2
  -9   6   6 534.568 97.2111   4
   9   6  -6 432.819 103.869   2
  -9   6   6 303.020 95.1472   2
  -9   6   5 144.014 71.0092   4
   9   6  -5 98.1851 80.4273   2
  -9   6   4 220.426 82.8675   4
   9   6  -4 108.441 84.7246   2
  -9   6   4 248.770 65.0279   6
  -9   6   3 371.641 98.6434   4
   9   6  -3 457.267 106.301   2
  -9   6   3 450.305 81.2393   6
  -9   6   2 270.880 97.0636   4
   9   6  -2 470.886 113.035   2
  -9   6   2 312.143 67.1486   6
  -9   6   1 2140.48 204.884   4
   9   6  -1 2051.05 213.265   2
  -9   6   1 2489.29 166.769   6
  -9   6   0 2244.22 216.867   4
   9   6   0 1941.14 213.988   2
  -9   6   0 2094.78 157.235   6
  -9   6  -1 3691.96 282.496   4
   9   6   1 3980.98 298.231   2
  -9   6  -1 3989.15 224.453   6
  -9   6  -2 317.963 112.273   4
  -9   6  -2 496.604 91.8997   6
   9   6   2 327.702 104.416   2
  -9   6  -3 87.0508 94.3553   4
  -9   6  -3 310.380 92.5569   6
   9   6   3 478.036 144.649   2
  -9   6  -4 74.1065 96.3869   4
  -9   6  -4 68.4937 60.3294   6
   9   6   4 106.206 97.3299   2
  -9   6  -5 600.027 152.363   4
  -9   6  -5 809.112 142.212   6
  -9   6  -6 1309.17 217.876   4
  -9   6  -6 958.208 155.217   6
   9   6   6 1190.82 215.331   2
   9   7 -15 160.371 116.681   4
   9   7 -14 521.217 129.544   4
  -9   7  14 747.089 183.273   2
   9   7 -13 448.091 136.452   4
   9   7 -13 277.573 126.547   6
  -9   7  13 411.579 159.507   2
   9   7 -12 1438.52 204.305   4
   9   7 -12 1299.90 192.008   6
  -9   7  12 1365.43 218.026   2
   9   7 -11 484.408 107.339   2
   9   7 -11 795.905 149.044   6
  -9   7  11 615.996 172.891   2
   9   7 -10 1821.78 177.411   2
   9   7 -10 1582.19 206.552   6
  -9   7  10 1802.79 218.692   2
  -9   7   9-10.8796 64.8253   4
   9   7  -9-36.1264 64.1713   2
   9   7  -9-26.0654 104.819   6
  -9   7   9 91.4249 95.7009   2
  -9   7   8 1101.13 140.549   4
   9   7  -8 637.752 123.075   2
   9   7  -8 994.140 173.072   6
  -9   7   8 541.399 129.419   2
  -9   7   7 339.183 94.1259   4
   9   7  -7 477.702 108.059   2
   9   7  -7 466.461 133.188   6
  -9   7   7 312.009 112.128   2
  -9   7   6 1053.01 149.282   4
   9   7  -6 1247.71 162.424   2
  -9   7   6 974.325 144.596   2
  -9   7   5 852.108 133.046   4
   9   7  -5 878.565 148.452   2
  -9   7   4 1027.66 147.832   4
   9   7  -4 1058.07 152.996   2
  -9   7   4 879.150 113.744   6
  -9   7   3 1253.07 157.394   4
   9   7  -3 1376.24 178.934   2
  -9   7   3 1060.66 125.187   6
  -9   7   2 494.355 114.542   4
   9   7  -2 298.482 106.496   2
  -9   7   2 373.081 87.0143   6
  -9   7   1 1214.09 180.139   4
  -9   7   1 941.199 120.862   6
   9   7  -1 725.184 148.853   2
  -9   7   0 24.6536 101.312   4
  -9   7   0 109.682 68.9868   6
   9   7   0 47.5942 96.9417   2
  -9   7  -1 2284.02 252.195   4
  -9   7  -1 2301.55 185.993   6
   9   7   1 1873.50 226.316   2
  -9   7  -2 417.224 139.975   4
  -9   7  -2 904.935 130.237   6
   9   7   2 661.120 163.635   2
  -9   7  -3 1322.09 201.268   4
   9   7   3 1289.44 208.566   2
  -9   7  -4 145.092 111.984   4
   9   7   4 514.653 171.739   2
  -9   7  -5 746.236 178.621   4
  -9   8  12 357.061 153.450   2
  -9   8  11 356.715 134.380   2
  -9   8  10 1348.57 210.890   2
   9   8  -9 469.785 141.435   6
  -9   8   9 259.549 130.863   2
  -9   8   8 774.747 143.165   4
   9   8  -8 361.051 116.505   2
   9   8  -8 480.658 144.831   6
  -9   8   8 470.712 134.033   2
  -9   8   7 114.700 95.3603   4
   9   8  -7 23.5287 95.4807   2
   9   8  -7 240.376 118.817   6
  -9   8   7 176.507 108.768   2
  -9   8   6 613.174 136.064   4
   9   8  -6 485.792 118.386   2
  -9   8   6 363.676 129.956   2
  -9   8   5 1008.81 166.165   4
   9   8  -5 683.501 146.822   2
   9   8  -4 1038.82 175.600   2
  -9   8   4 1146.71 179.046   4
  -9   8   3 396.842 128.437   4
   9   8  -3 772.069 164.808   2
  -9   8   2 276.455 136.240   4
   9   8  -2 174.359 143.021   2
  -9   8   1 534.257 161.613   4
   9   8  -1 514.765 141.936   2
  -9   8   0 215.767 141.548   4
   9   8   0 481.219 147.365   2
  -9   8  -1 1436.62 212.035   4
   9   8   1 979.580 185.305   2
  -9   8  -2 257.605 117.896   4
   9   8   2 259.575 131.087   2
  -9   9  10 153.136 118.034   2
  -9   9   9 158.480 112.608   2
  -9   9   6 308.120 109.547   4
  -9   9   5 694.896 151.827   4
   9   9  -5 601.298 148.976   2
  -9   9   4 437.348 132.929   4
   9   9  -4 658.970 160.580   2
  -9   9   3 440.132 139.793   4
   9   9  -3 534.382 157.263   2
  -9   9   2 108.630 97.3470   4
   9   9  -2 225.002 128.058   2
  -9   9   1-33.7497 95.2414   4
   9   9  -1 5.12880 107.814   2
 -10  -9   7 527.877 176.421   7
 -10  -9   6 1494.04 227.235   7
 -10  -9   5 303.977 134.557   7
 -10  -9   4 1239.64 212.182   7
  10  -8 -13-68.8266 141.092   7
  10  -8 -13-63.6277 108.881   3
  10  -8 -12 606.412 153.698   3
  10  -8 -11 170.542 100.190   3
  10  -8 -10 346.873 132.242   3
 -10  -8   9 1413.85 201.975   7
  10  -8  -9 1273.14 221.102   3
 -10  -8   8 2898.94 273.445   7
  10  -8  -8 2726.35 296.744   3
 -10  -8   8 3142.24 321.494   5
 -10  -8   7 678.033 169.892   7
  10  -8  -7 398.547 131.328   3
 -10  -8   7 495.007 146.018   5
 -10  -8   6 383.976 130.818   7
  10  -8  -6 639.832 168.804   3
 -10  -8   6 535.905 149.820   5
 -10  -8   5-12.5718 112.395   7
  10  -8  -5-53.4033 103.623   3
 -10  -8   5-62.7734 101.584   5
 -10  -8   4 323.871 125.503   7
  10  -8  -4 569.332 162.077   3
 -10  -8   4 484.424 142.631   5
 -10  -8   3 353.761 137.597   7
  10  -8  -3 369.158 145.573   3
 -10  -8   3 484.352 139.928   5
 -10  -8   2 2366.06 263.770   7
  10  -8  -2 2252.39 274.995   3
 -10  -8   2 2596.85 274.492   5
 -10  -8   1 1393.20 220.056   7
  10  -8  -1 888.809 185.255   3
 -10  -8   1 1062.20 202.543   5
 -10  -8   0 256.704 132.457   7
 -10  -8   0 437.581 140.820   5
 -10  -8  -1 154.190 120.003   5
 -10  -8  -2 773.124 173.775   5
  10  -7 -15 31.8491 124.022   7
  10  -7 -15 370.800 128.335   3
  10  -7 -14 61.8699 139.498   7
  10  -7 -14-21.5746 130.427   3
  10  -7 -13-208.664 162.787   7
  10  -7 -13 142.878 134.294   3
 -10  -7  13 145.856 123.670   5
  10  -7 -12 1818.14 230.056   3
 -10  -7  12 1511.78 224.227   5
  10  -7 -11 1375.39 196.630   3
 -10  -7  11 1304.38 201.385   5
 -10  -7  10 4913.04 301.591   7
  10  -7 -10 5207.52 366.177   3
 -10  -7  10 5334.12 389.356   5
 -10  -7   9 1832.93 198.568   7
  10  -7  -9 1896.77 237.725   3
 -10  -7   9 1792.11 241.791   5
 -10  -7   8 16.8637 94.4805   7
  10  -7  -8-91.2138 98.4536   3
 -10  -7   8-252.418 134.734   5
 -10  -7   7 668.054 141.278   7
  10  -7  -7 905.286 180.455   3
 -10  -7   7 352.910 122.951   5
 -10  -7   6 2663.31 240.178   7
  10  -7  -6 2490.51 261.985   3
 -10  -7   6 2372.26 255.931   5
 -10  -7   5 841.734 156.130   7
  10  -7  -5 624.412 151.328   3
 -10  -7   5 857.764 172.016   5
 -10  -7   4 2133.15 230.788   7
  10  -7  -4 2353.03 252.138   3
 -10  -7   4 1947.89 229.732   5
 -10  -7   3 470.017 132.354   7
  10  -7  -3 581.536 151.451   3
 -10  -7   3 73.7490 111.830   5
 -10  -7   2-27.6473 107.527   7
  10  -7  -2-76.1383 100.740   3
 -10  -7   2 76.0805 110.778   5
 -10  -7   1 1941.32 235.490   7
  10  -7  -1 2038.27 239.141   3
 -10  -7   1 1770.61 228.730   5
 -10  -7   0 4790.43 362.592   7
  10  -7   0 5377.12 381.894   3
 -10  -7   0 5345.78 346.635   5
 -10  -7  -1 1581.84 228.005   7
  10  -7   1 1612.97 225.738   3
 -10  -7  -1 1559.40 203.196   5
 -10  -7  -2 1475.23 235.225   7
  10  -7   2 1571.44 220.101   3
 -10  -7  -2 1707.08 207.848   5
 -10  -7  -3 63.4752 119.822   7
  10  -7   3 15.1470 103.089   3
  10  -7   4 100.056 105.673   3
  10  -7   5 333.304 129.746   3
  10  -7   6 1422.40 210.118   3
  10  -6 -16 107.285 98.3080   3
 -10  -6  16 31.4298 106.567   5
  10  -6 -15 249.457 104.687   7
  10  -6 -15 243.697 100.461   3
 -10  -6  15 213.161 122.196   5
  10  -6 -14 868.955 161.100   7
  10  -6 -14 993.365 179.028   3
 -10  -6  14 914.194 181.028   5
  10  -6 -13 285.716 111.768   3
 -10  -6  13 200.559 117.281   5
  10  -6 -12 715.137 143.278   3
 -10  -6  12 753.838 156.508   5
 -10  -6  11 699.470 116.721   7
  10  -6 -11 594.807 144.927   3
 -10  -6  11 615.125 145.182   5
 -10  -6  10 5520.78 283.503   7
  10  -6 -10 4935.06 334.370   3
 -10  -6  10 4439.03 335.950   5
 -10  -6   9 3731.55 240.183   7
  10  -6  -9 3737.29 297.158   3
 -10  -6   9 3742.31 307.603   5
 -10  -6   8 12535.7 441.755   7
  10  -6  -8 12194.5 519.929   3
 -10  -6   8 11626.9 520.141   5
 -10  -6   7 4521.99 275.996   7
  10  -6  -7 4476.14 318.584   3
 -10  -6   7 3943.90 306.285   5
 -10  -6   6 2969.73 232.141   7
  10  -6  -6 2763.21 250.821   3
 -10  -6   6 2934.13 265.722   5
 -10  -6   5 1025.67 150.594   7
  10  -6  -5 1032.18 167.687   3
 -10  -6   5 949.055 160.946   5
 -10  -6   4 2060.58 207.463   7
  10  -6  -4 2844.72 262.581   3
 -10  -6   4 2799.49 251.972   5
 -10  -6   3 4281.03 297.395   7
  10  -6  -3 4568.71 323.811   3
 -10  -6   3 4557.21 310.798   5
 -10  -6   2 11508.8 488.191   7
  10  -6  -2 12057.3 518.749   3
 -10  -6   2 12447.4 496.120   5
 -10  -6   1 3543.01 285.465   7
  10  -6  -1 3606.00 292.762   3
 -10  -6   1 3915.80 285.116   5
 -10  -6   0 3995.28 311.464   7
  10  -6   0 4811.40 339.019   3
 -10  -6   0 5202.71 324.653   5
 -10  -6  -1 716.298 154.966   7
  10  -6   1 747.994 150.413   3
 -10  -6  -1 549.805 121.016   5
 -10  -6  -2 641.723 162.691   7
  10  -6   2 789.804 174.351   3
 -10  -6  -2 635.772 124.735   5
  10  -6   3 362.031 130.384   3
 -10  -6  -3 352.454 131.552   7
 -10  -6  -3 275.304 105.933   5
 -10  -6  -4 722.803 182.767   7
  10  -6   4 681.920 141.524   3
 -10  -6  -5 335.431 155.617   7
  10  -6   5 416.982 127.479   3
  10  -6   6 284.207 109.371   3
 -10  -5  19 275.012 132.748   5
 -10  -5  18 1202.49 202.881   5
 -10  -5  17 810.496 166.024   5
  10  -5 -16 1672.47 175.622   7
  10  -5 -16 1301.50 182.783   3
 -10  -5  16 1624.96 220.668   5
  10  -5 -15 1033.81 152.851   7
  10  -5 -15 689.210 136.640   3
 -10  -5  15 801.590 153.598   5
  10  -5 -14 501.069 113.490   7
  10  -5 -14 388.871 106.531   3
 -10  -5  14 362.499 131.496   5
  10  -5 -13 654.816 131.171   7
  10  -5 -13 792.207 146.836   3
 -10  -5  13 905.398 173.139   5
 -10  -5  12 3989.56 197.207   7
  10  -5 -12 3702.23 281.244   3
 -10  -5  12 3918.85 305.795   5
 -10  -5  11 2558.40 164.726   7
  10  -5 -11 2443.89 225.661   3
 -10  -5  11 2445.30 244.269   5
 -10  -5  10 7258.29 284.960   7
  10  -5 -10 7208.12 374.535   3
 -10  -5  10 7472.35 406.025   5
 -10  -5   9 1033.09 116.758   7
  10  -5  -9 660.315 125.714   3
 -10  -5   9 878.196 155.585   5
 -10  -5   8-44.5850 64.5738   7
  10  -5  -8 49.2932 78.5210   3
 -10  -5   8 133.935 100.043   5
 -10  -5   7 768.467 111.531   7
  10  -5  -7 770.126 136.942   3
 -10  -5   7 779.157 142.713   5
 -10  -5   6 7297.70 318.429   7
  10  -5  -6 7712.07 384.972   3
 -10  -5   6 7555.51 374.458   5
 -10  -5   5 5047.82 273.458   7
  10  -5  -5 4829.19 304.717   3
 -10  -5   5 4623.99 292.313   5
 -10  -5   4 8184.44 357.556   7
  10  -5  -4 8428.61 402.202   3
  10  -5  -4 8356.06 323.916   2
 -10  -5   4 8552.21 391.207   5
  10  -5  -3 972.825 118.615   2
 -10  -5   3 938.864 137.291   7
  10  -5  -3 890.417 149.966   3
 -10  -5   3 1014.44 142.822   5
  10  -5  -2 8.15041 72.7160   2
 -10  -5   2-67.2333 78.8198   7
  10  -5  -2 175.472 109.471   3
 -10  -5   2 70.3134 80.0881   5
  10  -5  -1 821.151 95.4300   2
 -10  -5   1 758.015 129.924   7
  10  -5  -1 872.036 148.168   3
 -10  -5   1 820.200 134.751   5
 -10  -5   0 6839.50 371.149   7
  10  -5   0 7225.44 384.767   3
 -10  -5   0 6796.36 330.827   5
 -10  -5  -1 2561.68 242.822   7
  10  -5   1 2716.06 243.971   3
 -10  -5  -1 2659.01 211.401   5
 -10  -5  -2 3675.68 295.288   7
  10  -5   2 4033.94 294.856   3
 -10  -5  -2 4186.88 252.854   5
 -10  -5  -3 615.712 149.935   7
  10  -5   3 821.025 150.455   3
 -10  -5  -3 633.836 114.235   5
 -10  -5  -4 424.220 137.398   7
  10  -5   4 434.311 126.589   3
 -10  -5  -4 395.882 89.7211   5
 -10  -5  -5 616.700 163.515   7
  10  -5   5 862.590 139.514   3
 -10  -5  -6 1771.95 246.464   7
  10  -5   6 1829.71 203.517   3
 -10  -5  -7 686.022 177.815   7
  10  -5   7 728.787 151.328   3
  10  -5   7 700.822 144.346   1
 -10  -4  20 338.998 121.389   5
 -10  -4  19 206.282 137.363   5
 -10  -4  18 150.858 104.754   5
  10  -4 -17 333.837 76.9641   3
 -10  -4  17 459.520 130.155   5
  10  -4 -16 1580.38 159.758   7
  10  -4 -16 1309.57 159.889   3
 -10  -4  16 1434.08 197.644   5
  10  -4 -15 1962.95 174.334   7
  10  -4 -15 1745.46 183.495   3
 -10  -4  15 1608.73 209.570   5
  10  -4 -14 7668.34 331.463   7
  10  -4 -14 7136.17 357.853   3
 -10  -4  14 6977.33 398.977   5
  10  -4 -13 3841.54 236.018   7
  10  -4 -13 3472.97 251.969   3
 -10  -4  13 3549.44 281.258   5
 -10  -4  12 2741.06 124.583   7
  10  -4 -12 2693.58 220.697   3
 -10  -4  12 2767.20 244.890   5
 -10  -4  11 961.909 84.9888   7
  10  -4 -11 844.486 137.463   3
 -10  -4  11 952.283 154.177   5
 -10  -4  10 91.2216 46.9947   7
  10  -4 -10 19.0281 70.6993   3
 -10  -4  10-93.8684 92.5897   5
 -10  -4   9 358.134 69.4102   7
  10  -4  -9 432.669 100.296   3
 -10  -4   9 505.870 118.588   5
 -10  -4   8 2880.62 171.052   7
  10  -4  -8 3064.32 235.557   3
 -10  -4   8 2746.02 232.971   5
 -10  -4   7 948.698 109.628   7
  10  -4  -7 953.296 138.546   3
 -10  -4   7 896.105 139.856   5
 -10  -4   6 2195.01 162.419   7
  10  -4  -6 2096.25 197.609   3
 -10  -4   6 2382.28 205.332   5
 -10  -4   5 963.445 120.764   7
  10  -4  -5 1177.94 138.239   2
  10  -4  -5 1060.44 153.133   3
 -10  -4   5 1089.55 149.714   5
 -10  -4   4 2142.58 178.245   7
  10  -4  -4 2120.59 195.055   3
 -10  -4   4 2131.42 188.561   5
  10  -4  -4 2263.56 170.490   2
 -10  -4   3 843.859 124.239   7
  10  -4  -3 853.592 112.361   2
  10  -4  -3 1159.70 154.934   3
 -10  -4   3 1000.06 134.207   5
 -10  -4   2 3461.38 240.910   7
  10  -4  -2 3467.73 249.078   3
 -10  -4   2 3531.91 230.602   5
  10  -4  -2 3483.16 194.661   2
 -10  -4   1 384.395 95.3098   7
  10  -4  -1 404.540 82.8897   2
  10  -4  -1 463.608 109.912   3
 -10  -4   1 465.376 103.303   5
 -10  -4   0-1.17564 71.4105   7
  10  -4   0 28.3356 55.8307   2
  10  -4   0-15.7640 70.9972   3
 -10  -4   0 57.2263 57.1609   5
 -10  -4  -1 1015.91 153.385   7
  10  -4   1 981.016 94.8554   2
  10  -4   1 1000.87 147.919   3
 -10  -4  -1 1024.68 124.529   5
  10  -4   2 2564.84 141.301   2
 -10  -4  -2 2534.38 231.445   7
  10  -4   2 2303.74 207.225   3
 -10  -4  -2 2760.06 188.874   5
  10  -4   3 3815.85 166.449   2
 -10  -4  -3 3323.37 271.268   7
  10  -4   3 3466.10 253.447   3
 -10  -4  -3 3588.27 203.751   5
 -10  -4  -4 6768.17 392.517   7
  10  -4   4 7048.52 357.069   3
 -10  -4  -4 7315.44 271.070   5
 -10  -4  -5 1545.77 207.517   7
  10  -4   5 1876.80 193.753   3
 -10  -4  -6 1422.86 204.385   7
  10  -4   6 1414.78 165.830   3
  10  -4   7 449.833 116.521   1
 -10  -4  -7 332.428 142.788   7
  10  -4   7 431.806 106.393   3
  10  -4   8-185.871 115.582   1
 -10  -4  -8 214.775 130.583   7
  10  -4   9 149.741 101.449   1
 -10  -3  20-60.9685 101.172   5
 -10  -3  19 531.264 130.024   5
 -10  -3  18 365.355 117.998   5
 -10  -3  17 116.573 96.4165   5
  10  -3 -17 159.928 73.6653   3
  10  -3 -16 1416.15 127.005   7
 -10  -3  16 1227.18 178.169   5
  10  -3 -16 1314.44 154.558   3
  10  -3 -15 951.472 113.144   7
 -10  -3  15 731.273 150.797   5
  10  -3 -15 751.974 129.103   3
  10  -3 -14 783.574 101.892   7
 -10  -3  14 568.129 120.867   5
  10  -3 -14 535.303 107.939   3
  10  -3 -13 919.015 108.382   7
 -10  -3  13 1072.31 161.001   5
  10  -3 -13 1033.20 139.098   3
  10  -3 -12 4032.73 251.957   3
 -10  -3  12 3791.91 269.920   5
 -10  -3  11 1534.11 70.0651   7
  10  -3 -11 2467.40 205.799   3
 -10  -3  11 2346.37 215.819   5
 -10  -3  10 924.530 65.8840   7
 -10  -3  10 845.096 131.846   5
  10  -3 -10 868.672 125.542   3
 -10  -3   9 358.316 54.1733   7
 -10  -3   9 387.184 103.716   5
  10  -3  -9 221.174 85.3528   3
 -10  -3   8 880.098 84.7759   7
 -10  -3   8 671.530 125.740   5
  10  -3  -8 1102.19 136.422   3
 -10  -3   7 3512.45 164.508   7
  10  -3  -7 3403.46 230.913   3
 -10  -3   7 3328.94 230.624   5
  10  -3  -6 14489.6 427.529   2
 -10  -3   6 14355.5 351.547   7
  10  -3  -6 15234.0 467.092   3
 -10  -3   6 14857.5 459.115   5
  10  -3  -5 8415.56 316.981   2
 -10  -3   5 8335.21 285.294   7
  10  -3  -5 8719.45 354.627   3
 -10  -3   5 8055.91 338.177   5
  10  -3  -4 14527.4 398.948   2
 -10  -3   4 14029.7 389.396   7
  10  -3  -4 14110.2 451.971   3
 -10  -3   4 13988.6 430.676   5
  10  -3  -3 3165.05 176.209   4
  10  -3  -3 3207.61 189.741   2
 -10  -3   3 3098.34 200.705   7
  10  -3  -3 3408.26 225.366   3
 -10  -3   3 3022.50 206.965   5
  10  -3  -2 961.615 115.690   4
 -10  -3   2 635.450 107.748   7
  10  -3  -2 979.212 109.440   2
 -10  -3   2 948.736 118.902   5
  10  -3  -2 962.961 132.474   3
  10  -3  -1 373.226 96.2315   4
 -10  -3   1 338.683 89.4202   7
  10  -3  -1 242.162 81.2655   5
  10  -3  -1 423.198 101.408   3
 -10  -3   1 331.483 84.1471   5
  10  -3  -1 356.226 79.9038   2
 -10  -3   0 742.562 128.879   7
  10  -3   0 835.951 119.432   5
  10  -3   0 785.155 119.446   3
 -10  -3   0 644.943 100.624   5
  10  -3   0 857.286 102.729   2
 -10  -3  -1 2496.26 211.793   7
  10  -3   1 1958.05 127.380   6
  10  -3   1 2225.99 190.040   3
  10  -3   1 2412.15 181.808   5
 -10  -3  -1 2300.75 159.730   5
  10  -3   2 3632.97 181.569   2
 -10  -3  -2 3354.68 254.758   7
  10  -3   2 3192.83 173.320   6
  10  -3   2 3905.27 247.136   3
  10  -3   2 3801.87 217.695   5
 -10  -3  -2 3699.85 192.158   5
  10  -3   3 1105.05 107.637   2
 -10  -3  -3 1210.82 169.493   7
  10  -3   3 908.873 105.109   6
  10  -3   3 856.133 111.247   5
  10  -3   3 872.769 128.948   3
 -10  -3  -3 941.396 98.1211   5
 -10  -3  -4 606.467 138.945   7
  10  -3   4 690.705 94.3395   2
  10  -3   4 709.066 115.356   3
  10  -3   4 677.145 102.761   5
 -10  -3  -4 659.515 76.8810   5
 -10  -3  -5 688.188 148.383   7
  10  -3   5 949.593 103.412   2
  10  -3   5 958.021 138.388   3
 -10  -3  -6 1318.20 196.702   7
  10  -3   6 1484.43 160.048   3
  10  -3   6 1443.27 174.584   1
  10  -3   7 229.225 108.836   1
 -10  -3  -7 133.454 111.407   7
  10  -3   7 139.077 68.4706   3
 -10  -3  -8 265.344 131.977   7
  10  -3   8 277.293 94.5264   1
  10  -3   9 724.553 156.798   1
 -10  -3  -9 552.419 161.528   7
  10  -3  10-107.214 127.265   1
 -10  -2  20 625.869 146.709   5
 -10  -2  19 251.069 112.588   5
 -10  -2  18 451.585 116.016   5
  10  -2 -18 568.060 111.395   3
 -10  -2  17 702.475 134.595   5
  10  -2 -17 488.057 91.4657   3
 -10  -2  16 1271.31 174.432   5
  10  -2 -16 1197.72 144.650   3
  10  -2 -15 748.929 76.7576   7
 -10  -2  15 685.961 128.340   5
  10  -2 -15 484.754 100.591   3
  10  -2 -14 3120.76 142.427   7
 -10  -2  14 2891.24 237.561   5
  10  -2 -14 2651.93 200.974   3
  10  -2 -13 993.817 90.2769   7
 -10  -2  13 827.151 133.897   5
  10  -2 -13 1072.01 133.025   3
  10  -2 -12 928.011 127.495   3
  10  -2 -12 883.788 97.2117   7
 -10  -2  12 958.879 142.803   5
  10  -2 -11 214.815 75.3873   3
 -10  -2  11 396.378 105.393   5
 -10  -2  10 4331.99 259.793   5
  10  -2 -10 4074.18 237.735   3
 -10  -2   9 4865.44 269.159   5
  10  -2  -9 4937.51 256.033   3
 -10  -2   8 10139.0 211.289   7
 -10  -2   8 10362.4 381.224   5
  10  -2  -8 10459.5 369.650   3
  10  -2  -7 1755.38 158.573   2
 -10  -2   7 1712.74 103.860   7
  10  -2  -7 1610.74 152.009   3
 -10  -2   7 1612.91 154.593   5
  10  -2  -6 6311.40 276.761   2
 -10  -2   6 5938.77 205.656   7
  10  -2  -6 5890.86 285.000   5
 -10  -2   6 5825.07 274.277   5
  10  -2  -6 5945.80 279.857   3
 -10  -2   5 56.2641 52.5610   7
  10  -2  -5 22.9367 39.9100   4
  10  -2  -5 33.8196 66.4812   5
  10  -2  -5 61.0603 71.8364   2
 -10  -2   5 18.1811 61.4408   5
  10  -2  -5 164.042 73.9462   3
  10  -2  -4 6345.33 212.393   4
  10  -2  -4 6594.74 268.899   2
 -10  -2   4 6089.64 242.278   7
  10  -2  -4 6654.54 287.624   5
 -10  -2   4 6378.65 274.365   5
  10  -2  -4 6393.41 286.252   3
  10  -2  -3 1909.06 131.070   4
 -10  -2   3 1658.82 144.443   7
  10  -2  -3 1740.79 143.436   2
  10  -2  -3 1897.03 155.739   5
 -10  -2   3 1763.12 145.924   5
  10  -2  -3 1812.61 158.456   3
  10  -2  -2 9405.23 299.889   4
  10  -2  -2 9913.97 335.632   5
 -10  -2   2 9664.52 319.485   5
  10  -2  -2 9668.74 358.598   3
 -10  -2   2 8925.27 321.765   7
  10  -2  -1 4418.18 227.192   4
 -10  -2   1 4479.04 246.251   7
  10  -2  -1 3653.21 118.565   6
  10  -2  -1 4463.78 224.468   5
 -10  -2   1 4095.63 208.166   5
  10  -2  -1 4562.93 250.298   3
  10  -2   0 4257.59 233.918   4
 -10  -2   0 3845.39 240.096   7
  10  -2   0 3900.77 144.700   6
  10  -2   0 4100.42 211.600   5
  10  -2   0 4306.43 241.785   3
 -10  -2   0 4301.19 205.805   5
  10  -2   1 252.332 54.0971   6
  10  -2   1 271.476 70.5011   5
 -10  -2  -1 301.098 66.5839   5
 -10  -2  -1 479.800 111.088   7
  10  -2   1 235.414 80.6525   3
  10  -2   2 1061.40 111.156   2
 -10  -2  -2 1048.08 148.895   7
  10  -2   2 1212.99 110.917   6
 -10  -2  -2 1065.90 100.303   5
  10  -2   2 1166.28 114.310   5
  10  -2   2 1171.90 136.907   3
  10  -2   3 1230.03 122.781   2
 -10  -2  -3 1050.31 156.449   7
  10  -2   3 953.499 108.033   6
 -10  -2  -3 1020.60 92.4129   5
  10  -2   3 1090.00 106.802   5
  10  -2   3 1142.18 133.065   3
  10  -2   4 3287.37 193.992   2
 -10  -2  -4 2869.23 247.265   7
  10  -2   4 2409.31 172.352   6
  10  -2   4 2605.27 190.339   3
 -10  -2  -4 2431.62 116.433   5
  10  -2   4 2888.73 157.025   5
 -10  -2  -5 689.169 144.608   7
  10  -2   5 798.039 107.841   2
  10  -2   5 666.509 124.636   1
  10  -2   5 697.118 106.925   3
 -10  -2  -6 1506.72 201.302   7
  10  -2   6 1416.42 173.066   1
  10  -2   6 1393.51 136.646   2
  10  -2   6 1088.60 131.122   3
 -10  -2  -7 682.404 170.713   7
  10  -2   7 379.658 116.437   1
  10  -2   7 712.451 103.425   2
  10  -2   8 725.858 146.864   1
 -10  -2  -8 746.490 184.076   7
 -10  -2  -9 812.919 180.704   7
  10  -2   9 754.605 144.511   1
  10  -2  10 707.704 171.154   1
  10  -2  11 337.611 132.559   1
 -10  -1  20 231.301 106.206   5
 -10  -1  19 182.616 106.716   5
 -10  -1  18 1289.12 179.705   5
  10  -1 -18 1510.57 151.751   3
  10  -1 -17 1033.13 126.450   3
 -10  -1  17 922.408 155.255   5
 -10  -1  16 4298.15 292.384   5
  10  -1 -16 4104.93 244.800   3
  10  -1 -15 747.628 115.873   3
 -10  -1  15 639.094 129.454   5
  10  -1 -14 172.799 67.3080   3
 -10  -1  14 341.140 103.221   5
  10  -1 -13 294.429 75.1711   3
 -10  -1  13 201.588 92.4068   5
  10  -1 -12 4986.22 110.054   7
 -10  -1  12 5854.82 271.972   6
 -10  -1  12 5151.45 285.605   5
  10  -1 -12 5639.83 273.294   3
  10  -1 -11 3631.53 118.181   7
 -10  -1  11 3960.05 250.624   5
  10  -1 -11 4179.37 236.182   3
 -10  -1  10 20931.2 545.833   5
  10  -1 -10 20684.4 511.390   3
 -10  -1   9 3531.48 224.656   5
  10  -1  -9 3446.51 213.684   3
 -10  -1   8 1760.85 159.626   5
  10  -1  -8 1743.44 152.259   3
  10  -1  -7 738.126 105.518   3
  10  -1  -7 445.419 39.0535   4
 -10  -1   7 621.990 106.012   5
  10  -1  -7 613.507 104.447   5
  10  -1  -7 638.870 105.094   2
  10  -1  -6 9510.84 195.043   4
  10  -1  -6 9867.87 268.738   7
  10  -1  -6 9806.83 336.884   2
 -10  -1   6 9937.77 342.181   5
  10  -1  -6 9995.51 345.507   5
  10  -1  -6 9391.70 337.602   3
  10  -1  -5 3114.05 128.595   4
  10  -1  -5 3408.90 168.507   7
 -10  -1   5 3084.12 192.529   5
  10  -1  -5 3034.32 191.090   5
  10  -1  -5 3337.30 206.372   3
  10  -1  -4 9348.42 246.455   4
 -10  -1   4 9038.67 281.894   7
  10  -1  -4 9801.09 300.400   7
 -10  -1   4 8967.04 313.822   5
  10  -1  -4 9286.69 317.925   5
  10  -1  -4 9022.42 325.050   3
  10  -1  -3 503.285 91.6921   3
  10  -1  -3 630.378 85.4827   4
 -10  -1   3 622.600 95.3824   7
  10  -1  -3 693.598 101.896   7
 -10  -1   3 533.272 93.7601   5
  10  -1  -3 722.054 100.918   5
  10  -1  -2 1699.49 130.171   4
 -10  -1   2 1532.95 142.851   7
  10  -1  -2 1804.38 152.816   7
  10  -1  -2 1564.84 68.3011   6
 -10  -1   2 1704.03 137.055   5
  10  -1  -2 1715.09 138.523   5
  10  -1  -2 1726.23 149.822   3
  10  -1  -1 3724.37 199.357   4
 -10  -1   1 3596.02 216.302   7
  10  -1  -1 3852.87 221.344   7
  10  -1  -1 3708.06 127.357   6
 -10  -1   1 3777.41 191.109   5
  10  -1  -1 3947.56 194.148   5
  10  -1  -1 3500.58 203.624   3
  10  -1   0 21807.3 498.519   4
 -10  -1   0 20735.0 527.730   7
  10  -1   0 20542.0 340.662   6
 -10  -1   0 21675.2 435.884   5
  10  -1   0 20751.3 426.030   5
  10  -1   0 21106.3 496.076   3
  10  -1   1 4303.51 221.793   2
  10  -1   1 4100.61 173.396   6
 -10  -1  -1 4274.43 189.957   5
 -10  -1  -1 3944.03 250.345   7
  10  -1   1 4304.58 192.879   5
  10  -1   1 4338.18 226.423   3
  10  -1   2 6112.09 266.242   2
 -10  -1  -2 5571.72 306.515   7
  10  -1   2 5570.66 220.191   6
 -10  -1  -2 5932.73 210.261   5
  10  -1   2 6011.19 217.730   5
  10  -1   2 6073.26 269.206   3
  10  -1   3 278.738 95.7241   1
 -10  -1  -3 87.4308 77.6439   7
  10  -1   3 281.352 85.8772   2
  10  -1   3 211.415 62.4793   6
  10  -1   3 349.494 59.1214   5
  10  -1   3 349.262 80.1988   3
  10  -1   4 352.587 104.580   1
 -10  -1  -4 207.494 103.901   7
  10  -1   4 306.011 83.9177   2
  10  -1   4 229.007 68.9214   6
  10  -1   4 225.643 49.2168   5
  10  -1   4 133.293 68.5075   3
  10  -1   5 959.950 143.093   1
  10  -1   5 785.696 111.894   2
  10  -1   5 801.673 104.038   3
  10  -1   6 4437.21 254.744   2
  10  -1   6 4086.44 276.110   1
  10  -1   6 3789.00 203.700   3
  10  -1   7 1317.75 179.868   1
  10  -1   7 1143.48 146.469   2
  10  -1   8 1978.71 185.373   2
  10  -1   8 1895.84 211.915   1
  10  -1   9 690.603 137.052   1
  10  -1   9 602.487 116.961   2
  10  -1  10 42.7271 112.071   1
  10  -1  11 292.036 117.023   1
  10  -1  12 297.432 126.883   1
 -10   0  20 453.689 122.686   5
 -10   0  19 159.030 87.8419   5
  10   0 -18 1328.18 145.909   3
 -10   0  18 944.831 149.311   5
  10   0 -17 777.183 112.949   3
 -10   0  17 668.172 133.200   5
  10   0 -16 1029.56 130.282   3
 -10   0  16 1186.36 156.803   5
  10   0 -15 1308.95 77.5469   4
  10   0 -15 1377.88 146.812   3
 -10   0  15 1598.46 183.668   5
  10   0 -14 2899.79 97.6490   4
 -10   0  14 3536.95 253.871   5
  10   0 -14 3561.89 223.484   3
  10   0 -13 213.734 77.0670   3
  10   0 -13 202.777 23.4543   4
 -10   0  13 229.474 80.8553   6
 -10   0  13 309.482 94.0118   5
  10   0 -12 6796.14 267.383   6
 -10   0  12 6579.78 273.905   6
 -10   0  12 6674.21 326.461   5
  10   0 -12 6390.13 294.080   3
  10   0 -11 555.585 99.7852   3
  10   0 -11 589.484 83.8807   6
 -10   0  11 422.131 83.3816   6
 -10   0  11 582.249 116.445   5
  10   0 -10 7289.62 237.705   6
 -10   0  10 6550.76 240.764   6
 -10   0  10 6716.22 308.946   5
  10   0 -10 7022.45 295.409   3
  10   0  -9 11027.6 130.676   4
  10   0  -9 12433.9 283.588   6
 -10   0   9 11769.0 398.894   5
  10   0  -9 11407.9 374.179   3
  10   0  -8 34170.4 296.559   4
  10   0  -8 33965.9 356.920   7
  10   0  -8 34925.7 648.328   2
  10   0  -8 34717.2 428.612   6
 -10   0   8 33287.0 654.075   5
  10   0  -8 33222.7 644.380   5
  10   0  -8 33813.1 635.103   3
  10   0  -7 8945.28 179.794   4
  10   0  -7 8772.41 210.151   7
  10   0  -7 9028.09 327.970   2
  10   0  -7 9230.19 203.154   6
 -10   0   7 9243.54 338.733   5
  10   0  -7 9082.94 332.258   5
  10   0  -7 9101.05 326.161   3
  10   0  -6 3130.93 124.054   4
  10   0  -6 3168.65 141.151   7
  10   0  -6 3064.83 110.243   6
 -10   0   6 3358.49 200.277   5
  10   0  -6 2969.99 189.832   5
  10   0  -6 3166.12 195.647   3
  10   0  -5 25.1162 54.3859   3
  10   0  -5-1.65823 35.1089   4
  10   0  -5 12.6818 36.7318   7
  10   0  -5-8.09065 23.0282   6
 -10   0   5 78.3610 52.3624   5
  10   0  -5 74.4824 59.7385   5
  10   0  -4 3075.92 148.283   4
  10   0  -4 2849.21 157.823   7
 -10   0   4 3180.28 191.764   5
  10   0  -4 2749.08 173.383   5
  10   0  -4 3195.16 192.991   3
  10   0  -3 9418.59 274.719   4
  10   0  -3 9459.20 299.511   7
 -10   0   3 9288.69 309.863   5
  10   0  -3 9157.28 301.957   5
  10   0  -3 9313.33 327.796   3
  10   0  -2 34598.5 558.441   4
  10   0  -2 34094.9 593.384   7
 -10   0   2 34433.5 582.897   5
  10   0  -2 34128.5 559.688   5
  10   0  -2 33773.5 607.616   3
  10   0  -1 12570.6 358.248   4
  10   0  -1 12354.1 379.188   7
 -10   0   1 12400.4 345.412   5
  10   0  -1 12194.2 327.487   5
  10   0  -1 11907.0 364.831   3
  10   0   0 6927.62 284.938   4
 -10   0   0 7275.56 255.655   5
  10   0   0 7214.65 245.270   5
  10   0   0 6729.11 272.598   3
  10   0   1 544.037 89.3359   3
  10   0   1 531.392 101.067   2
  10   0   1 506.018 73.0029   5
 -10   0  -2 7097.91 328.329   4
  10   0   2 6038.00 281.526   2
  10   0   2 6075.27 249.547   6
  10   0   2 6701.42 316.225   1
  10   0   2 6540.98 212.403   5
  10   0   2 6569.37 266.596   3
 -10   0  -3 275.571 95.0751   4
  10   0   3 275.480 85.4254   2
  10   0   3 323.526 93.5485   1
  10   0   3 399.546 86.8995   6
  10   0   3 292.187 52.6621   5
  10   0   3 175.356 63.0898   3
 -10   0  -4 3665.44 267.490   4
  10   0   4 3904.31 236.348   2
  10   0   4 3468.92 248.036   1
  10   0   4 3319.94 191.553   3
  10   0   4 2804.74 111.737   5
 -10   0  -5 1711.48 191.739   4
  10   0   5 1806.42 172.570   2
  10   0   5 1921.44 195.271   1
  10   0   5 1589.92 133.181   3
  10   0   6 1390.09 176.816   1
 -10   0  -6 1184.40 172.446   4
  10   0   6 1115.13 154.184   2
  10   0   6 1038.60 106.639   3
  10   0   7 738.477 131.571   2
  10   0   7 863.099 150.850   1
  10   0   8 1532.32 194.485   1
  10   0   8 1841.51 192.733   2
  10   0   9 374.834 128.679   1
  10   0   9 644.940 135.795   2
  10   0  10 715.180 166.901   1
  10   0  10 1100.89 167.861   2
  10   0  11 2.49032 137.092   1
 -10   1  20 110.220 115.942   2
 -10   1  19 748.876 164.813   2
 -10   1  19 803.498 150.345   5
 -10   1  18 1663.94 215.397   2
 -10   1  18 1118.68 159.129   5
  10   1 -18 1650.96 169.003   3
 -10   1  17 1393.40 193.097   2
  10   1 -17 1093.58 139.735   3
 -10   1  17 989.319 154.450   5
  10   1 -16 4510.36 189.282   4
 -10   1  16 4483.47 314.472   2
 -10   1  16 4083.22 283.899   5
  10   1 -16 4167.54 250.724   3
  10   1 -15 837.817 81.8990   4
  10   1 -15 734.035 126.695   6
 -10   1  15 668.696 132.400   5
  10   1 -14 284.326 53.5852   4
  10   1 -14 142.383 64.4981   6
 -10   1  14 222.572 92.8145   5
  10   1 -13 257.379 46.2998   4
  10   1 -13 259.156 79.1885   6
 -10   1  13 190.811 80.0082   6
 -10   1  13 354.781 107.883   5
  10   1 -12 6356.34 180.615   4
  10   1 -12 6208.39 270.854   6
 -10   1  12 5729.16 246.354   6
 -10   1  12 5876.16 310.914   5
  10   1 -11 4004.57 142.142   4
  10   1 -11 4159.12 210.436   6
 -10   1  11 4066.03 190.000   6
 -10   1  11 4211.35 260.338   5
  10   1 -10 21233.9 440.183   6
 -10   1  10 20434.6 381.162   6
 -10   1  10 21071.1 547.706   5
  10   1  -9 3691.72 177.748   6
 -10   1   9 3651.34 147.215   6
 -10   1   9 3463.55 222.074   5
  10   1  -8 1434.61 83.3238   7
  10   1  -8 1967.12 126.718   6
 -10   1   8 1560.54 155.887   5
  10   1  -7 638.915 66.1630   7
  10   1  -7 570.474 72.7753   6
 -10   1   7 466.402 94.6564   5
  10   1  -7 602.276 108.253   5
  10   1  -6 9269.02 244.094   7
  10   1  -6 8757.39 237.344   6
 -10   1   6 9010.31 335.406   5
  10   1  -6 8941.45 324.193   5
  10   1  -5 3147.13 154.844   4
  10   1  -5 3069.12 153.863   7
 -10   1   5 3755.34 215.345   5
  10   1  -5 3066.86 191.169   5
 -10   1   4 9842.72 265.785   4
  10   1  -4 10146.9 287.412   4
  10   1  -4 9926.81 292.074   7
 -10   1   4 10207.5 340.818   5
  10   1  -4 10180.4 329.824   5
 -10   1   3 739.888 91.9395   4
  10   1  -3 683.626 95.1579   4
  10   1  -3 674.495 94.4783   7
 -10   1   3 690.355 104.248   5
  10   1  -3 781.552 99.6059   5
 -10   1   2 1703.62 138.394   4
  10   1  -2 1843.05 140.787   4
  10   1  -2 1461.47 135.608   7
 -10   1   2 1998.49 154.039   5
  10   1  -2 1508.67 127.209   5
 -10   1   1 3912.95 206.798   4
  10   1  -1 3594.82 204.926   4
  10   1  -1 3292.90 193.339   3
  10   1  -1 3450.26 209.734   7
  10   1  -1 3705.65 221.326   1
  10   1  -1 3415.91 177.901   5
 -10   1   0 20758.2 498.538   4
  10   1   0 20918.6 512.133   2
  10   1   0 21685.4 536.464   1
  10   1   0 21398.9 415.972   5
  10   1   0 21681.6 480.668   3
 -10   1  -1 4807.83 259.251   4
  10   1   1 4131.94 240.659   2
  10   1   1 4042.98 248.534   1
  10   1   1 3872.50 171.805   5
  10   1   1 4014.67 209.747   3
 -10   1  -2 6638.34 317.343   4
  10   1   2 5263.40 274.460   2
  10   1   2 5151.76 297.165   1
  10   1   2 5322.08 188.640   5
  10   1   2 5339.56 238.289   3
  10   1   3 199.112 64.6736   3
 -10   1  -3 281.013 94.4681   4
  10   1   3 414.969 104.628   2
  10   1   3 360.160 117.773   1
  10   1   3 171.181 42.9652   5
  10   1   4 351.355 73.7096   3
  10   1   4 374.591 114.563   1
 -10   1  -4 225.614 93.4955   4
  10   1   4 141.647 77.6324   2
 -10   1  -5 708.812 133.245   4
  10   1   5 811.756 139.644   2
  10   1   5 768.232 140.616   1
  10   1   5 664.124 86.2479   3
 -10   1  -6 4015.19 297.606   4
  10   1   6 4876.75 318.823   1
  10   1   6 5228.20 307.610   2
  10   1   6 3794.93 185.362   3
 -10   1  -7 1340.34 191.678   4
  10   1   7 1546.26 191.038   1
  10   1   7 1383.15 179.958   2
 -10   1  -8 1560.67 214.361   4
  10   1   8 1793.10 214.945   1
  10   1   8 1801.53 206.662   2
  10   1   9 956.994 182.524   1
 -10   1  -9 548.864 158.168   4
  10   1   9 687.364 143.109   2
  10   1  10 191.308 130.431   1
 -10   1 -10 227.270 134.491   4
  10   1  10 326.408 130.356   2
  10   1  11 429.110 127.291   2
  10   1  11 681.424 164.037   1
 -10   2  20 626.177 174.864   2
  10   2 -19 547.880 108.394   3
 -10   2  19 552.388 160.842   2
  10   2 -18 762.147 154.478   6
 -10   2  18 627.438 160.356   2
  10   2 -17 722.140 103.733   4
  10   2 -17 719.905 141.900   6
 -10   2  17 687.587 144.063   2
  10   2 -16 1338.80 127.480   4
  10   2 -16 1348.60 172.899   6
 -10   2  16 1314.03 203.118   2
  10   2 -15 613.266 83.3065   4
  10   2 -15 869.431 135.715   6
 -10   2  15 625.543 148.540   2
  10   2 -14 2996.07 166.896   4
 -10   2  14 3145.29 264.131   2
  10   2 -14 3000.96 221.998   6
 -10   2  14 2467.22 216.800   5
  10   2 -13 1081.57 101.407   4
  10   2 -13 958.990 128.804   6
 -10   2  13 1072.92 122.678   6
 -10   2  13 1130.43 163.914   5
 -10   2  13 1284.89 175.428   2
  10   2 -12 1022.89 99.2861   4
  10   2 -12 1176.17 141.719   6
 -10   2  12 1011.06 112.296   6
 -10   2  12 838.393 134.574   5
 -10   2  12 1192.74 166.307   2
  10   2 -11 171.780 54.9237   4
  10   2 -11 292.755 83.6842   6
 -10   2  11 212.973 64.8058   6
 -10   2  11 238.331 89.3729   5
 -10   2  10 3587.95 157.486   6
  10   2 -10 3775.45 210.101   6
 -10   2  10 3711.58 249.953   5
 -10   2   9 4024.60 143.900   6
  10   2  -9 4549.06 216.411   6
 -10   2   9 4744.08 268.838   5
 -10   2   8 7439.64 157.404   6
  10   2  -8 8757.67 293.181   6
 -10   2   8 9569.07 374.053   5
  10   2  -7 1788.99 133.509   6
 -10   2   6 6708.18 174.340   4
  10   2  -6 6404.83 229.084   7
  10   2  -6 6667.18 289.877   5
 -10   2   5 52.8855 37.3735   4
  10   2  -5 92.2968 54.4031   7
  10   2  -5 22.0157 56.5675   5
 -10   2   4 5944.32 211.587   4
  10   2  -4 5796.21 242.707   7
  10   2  -4 6077.33 255.667   1
  10   2  -4 6055.30 264.799   5
  10   2  -3 1654.18 138.379   4
 -10   2   3 1819.13 128.071   4
  10   2  -3 1689.19 144.659   7
  10   2  -3 1729.29 146.830   1
  10   2  -3 1618.12 137.435   5
  10   2  -2 9813.06 342.164   4
 -10   2   2 9962.33 313.091   4
  10   2  -2 10381.2 353.728   7
  10   2  -2 9894.61 351.185   1
  10   2  -2 10295.7 324.961   5
 -10   2   2 10238.5 366.552   3
 -10   2   1 4788.55 236.600   4
  10   2  -1 4609.78 257.003   2
  10   2  -1 4461.14 246.868   7
  10   2  -1 4395.26 246.299   1
  10   2  -1 4618.43 213.560   5
 -10   2   1 4581.05 249.906   3
 -10   2   0 3949.55 224.878   4
  10   2   0 3984.47 243.569   2
  10   2   0 4322.91 250.255   1
  10   2   0 4165.38 196.704   5
 -10   2   0 4149.81 240.764   3
 -10   2  -1 288.025 79.7363   3
 -10   2  -1 293.249 89.9959   4
  10   2   1 217.593 92.4925   1
  10   2   1 451.610 107.685   2
  10   2   1 285.747 64.1180   5
  10   2   2 904.786 89.2393   5
  10   2   2 782.028 134.709   1
 -10   2  -2 789.384 121.424   3
 -10   2  -2 773.063 129.142   4
  10   2   2 1121.75 146.801   2
  10   2   3 1027.50 115.656   3
 -10   2  -3 1033.69 141.769   4
  10   2   3 906.898 138.858   2
  10   2   3 1175.96 161.699   1
 -10   2  -4 2778.46 237.251   4
  10   2   4 3171.63 247.585   2
  10   2   4 3292.99 254.229   1
  10   2   4 2799.47 175.005   3
  10   2   5 589.991 89.2785   3
 -10   2  -5 535.410 128.885   4
  10   2   5 650.796 145.526   1
  10   2   5 789.810 143.735   2
 -10   2  -6 1446.15 199.432   4
  10   2   6 1465.22 194.435   1
  10   2   6 1557.34 194.257   2
  10   2   7 654.188 142.027   1
 -10   2  -7 610.616 151.646   4
  10   2   7 665.418 149.268   2
  10   2   8 991.947 171.699   1
 -10   2  -8 468.355 147.386   4
  10   2   8 752.097 149.829   2
 -10   2  -9 505.078 155.662   4
  10   2   9 785.723 163.088   2
  10   2   9 566.724 144.074   1
  10   2  10 596.191 152.476   2
  10   2  10 544.998 159.389   1
  10   2  11 362.762 148.109   2
  10   3 -19 564.116 144.943   6
 -10   3  19 227.569 132.344   2
  10   3 -18 921.157 168.755   6
 -10   3  18 551.746 172.233   2
  10   3 -17 196.885 75.8973   4
  10   3 -17 61.2116 82.4842   6
 -10   3  17 184.829 123.029   2
  10   3 -16 1420.69 144.779   4
  10   3 -16 1570.77 191.578   6
 -10   3  16 1338.85 205.997   2
  10   3 -15 772.938 111.324   4
  10   3 -15 1012.80 159.039   6
 -10   3  15 1150.50 184.076   2
  10   3 -14 809.168 107.707   4
  10   3 -14 732.023 128.761   6
 -10   3  14 485.532 124.222   2
  10   3 -13 718.504 101.635   4
  10   3 -13 944.139 62.7409   1
 -10   3  13 815.208 111.831   6
  10   3 -13 976.450 140.018   6
 -10   3  13 1004.31 162.063   2
  10   3 -12 3549.51 205.615   4
 -10   3  12 3627.28 265.747   2
 -10   3  12 2947.61 179.045   6
  10   3 -12 3648.58 131.671   1
  10   3 -12 3662.88 239.764   6
 -10   3  11 2056.19 142.336   6
  10   3 -11 2405.16 192.484   6
  10   3 -11 2383.65 118.627   1
 -10   3  11 1760.89 186.348   2
  10   3 -10 870.508 81.7299   1
 -10   3  10 750.579 80.0128   6
  10   3 -10 773.885 117.356   6
 -10   3  10 939.577 150.655   2
  10   3  -9 266.500 58.7352   1
 -10   3   9 258.383 48.0190   6
  10   3  -9 355.421 85.6968   6
 -10   3   8 870.180 56.8080   4
  10   3  -8 927.913 90.6752   1
 -10   3   8 833.682 61.3037   6
  10   3  -8 866.966 112.879   6
 -10   3   7 3190.07 124.594   4
  10   3  -7 2990.51 170.857   1
  10   3  -7 3142.02 197.384   6
 -10   3   6 14334.8 289.040   4
  10   3  -6 14354.9 367.606   1
 -10   3   5 8985.43 254.116   4
  10   3  -5 8050.35 293.592   1
 -10   3   4 15296.8 357.660   4
  10   3  -4 14777.2 404.052   1
 -10   3   3 3196.75 180.510   4
  10   3  -3 3249.43 220.019   2
  10   3  -3 3657.59 224.942   7
  10   3  -3 3446.10 209.740   1
  10   3  -3 3160.85 204.021   5
  10   3  -2 844.218 124.852   1
 -10   3   2 821.502 107.979   4
  10   3  -2 872.215 126.054   2
  10   3  -2 773.171 133.442   7
  10   3  -2 887.655 117.244   5
  10   3  -1 559.697 91.3191   5
 -10   3   1 505.267 98.0397   4
  10   3  -1 386.572 95.6707   2
  10   3  -1 424.538 97.8353   1
  10   3   0 817.396 106.520   5
 -10   3   0 881.856 124.055   4
  10   3   0 707.868 130.339   2
  10   3   0 846.156 133.226   1
 -10   3  -1 2584.18 204.132   4
  10   3   1 2609.90 220.503   2
  10   3   1 2453.67 209.895   1
 -10   3  -2 4066.84 263.422   4
  10   3   2 4227.86 278.826   2
  10   3   2 4137.58 276.931   1
 -10   3  -3 1312.71 170.744   4
  10   3   3 1182.93 174.183   1
  10   3   3 1170.82 163.933   2
 -10   3  -4 718.131 127.494   4
  10   3   4 771.873 149.408   1
  10   3   4 764.497 137.162   2
  10   3   5 819.359 103.033   3
  10   3   5 810.018 157.538   1
 -10   3  -5 849.532 157.303   4
  10   3   5 825.089 159.503   2
  10   3   6 1481.91 200.012   1
 -10   3  -6 1466.30 193.681   4
  10   3   6 1491.89 196.933   2
 -10   3  -7 67.9839 94.6672   4
  10   3   7 71.7191 91.0538   2
  10   3   7 46.0406 101.979   1
 -10   3  -8 574.913 160.450   4
  10   3   8 492.657 137.417   2
 -10   3  -9 388.997 153.521   4
  10   3   9 517.781 153.371   2
  10   3  10 38.8481 127.214   2
  10   4 -18 100.242 95.8775   6
 -10   4  18 132.946 112.388   2
  10   4 -17 622.878 124.999   4
  10   4 -17 301.747 120.128   6
 -10   4  17 615.830 164.156   2
  10   4 -16 1566.89 169.189   4
  10   4 -16 1357.62 186.044   6
 -10   4  16 1629.34 225.881   2
  10   4 -15 1809.39 176.547   4
  10   4 -15 1407.94 184.478   6
 -10   4  15 1753.24 219.430   2
  10   4 -14 7290.57 326.690   4
  10   4 -14 7551.33 385.054   6
 -10   4  14 7164.61 410.881   2
  10   4 -13 3383.60 220.755   4
 -10   4  13 3622.30 287.000   2
  10   4 -13 3699.69 263.558   6
  10   4 -12 2460.13 192.613   4
 -10   4  12 1688.95 144.190   6
  10   4 -12 2684.70 219.557   6
 -10   4  12 2177.45 222.319   2
  10   4 -11 960.434 74.6936   1
 -10   4  11 595.988 44.7981   4
 -10   4  11 789.050 99.2613   6
  10   4 -11 1017.60 138.432   6
 -10   4  11 970.156 148.587   2
  10   4 -10 66.9620 38.7915   1
 -10   4  10 5.94897 22.6731   4
 -10   4  10 54.4343 42.3975   6
  10   4 -10 93.4745 68.2721   6
 -10   4  10 0.95453 85.9653   2
 -10   4   9 472.550 59.2088   4
  10   4  -9 457.085 73.7319   1
  10   4  -9 360.173 93.2606   6
 -10   4   9 423.341 107.497   2
 -10   4   8 3177.16 143.315   4
  10   4  -8 3537.65 176.621   1
  10   4  -8 3605.46 235.113   6
 -10   4   7 902.965 89.5168   4
  10   4  -7 873.464 98.3073   1
 -10   4   6 2039.18 135.581   4
  10   4  -6 2081.10 154.495   1
 -10   4   6 1457.16 75.8377   6
  10   4  -5 1110.96 150.332   2
 -10   4   5 1096.37 109.705   4
 -10   4   5 829.530 49.6330   6
  10   4  -5 1330.63 129.388   1
 -10   4   4 2115.64 154.401   4
  10   4  -4 2214.65 193.212   2
  10   4  -4 2296.69 181.161   1
 -10   4   4 1870.31 73.0081   6
 -10   4   3 855.505 117.003   4
  10   4  -3 881.450 136.129   2
  10   4  -3 903.569 126.560   1
 -10   4   3 887.409 58.2943   6
 -10   4   2 2917.78 199.607   4
  10   4  -2 2971.15 227.312   2
  10   4  -2 2997.82 218.448   1
 -10   4   2 2914.06 116.676   6
 -10   4   1 334.445 89.9954   4
  10   4  -1 274.731 100.332   1
  10   4  -1 279.275 101.426   2
  10   4   0 125.223 88.1230   1
 -10   4   0 47.7060 65.0801   4
  10   4   0 69.9114 84.5526   2
  10   4   1 1077.52 156.915   1
 -10   4  -1 837.624 135.919   4
  10   4   1 970.166 150.452   2
 -10   4  -2 2607.70 226.798   4
  10   4   2 2764.11 241.013   1
  10   4   2 2470.23 228.085   2
 -10   4  -3 3625.59 273.005   4
  10   4   3 3531.49 277.284   1
  10   4   3 3684.20 285.202   2
 -10   4  -4 7099.71 392.941   4
  10   4   4 7389.19 407.198   1
  10   4   4 7641.82 406.703   2
 -10   4  -5 1842.76 214.340   4
  10   4   5 1850.79 218.455   2
  10   4   5 1765.48 236.898   1
 -10   4  -6 1557.84 216.806   4
  10   4   6 1784.75 224.661   2
  10   4   6 1772.74 229.453   1
 -10   4  -7 445.732 161.502   4
  10   4   7 629.608 160.817   2
  10   4   7 763.128 177.700   1
 -10   4  -8 61.1158 98.0564   4
  10   4   8 223.109 131.074   1
  10   4   8-116.591 126.833   2
  10   5 -17 615.557 131.282   4
  10   5 -17 923.714 172.986   6
 -10   5  17 953.884 223.001   2
  10   5 -16 1647.02 183.535   4
  10   5 -16 1744.76 221.480   6
 -10   5  16 1632.98 238.298   2
  10   5 -15 840.501 136.263   4
  10   5 -15 847.361 169.644   6
 -10   5  15 965.363 198.040   2
  10   5 -14 288.812 112.488   6
 -10   5  14 593.884 160.588   2
  10   5 -14 367.981 101.505   4
  10   5 -13 702.512 134.970   4
  10   5 -13 926.452 157.508   6
 -10   5  13 668.004 145.780   2
 -10   5  12 3980.51 306.984   2
  10   5 -12 4011.60 291.332   6
 -10   5  11 2444.17 234.700   2
 -10   5  11 2451.31 134.595   4
  10   5 -11 2730.78 227.646   6
 -10   5  10 7065.30 230.282   4
 -10   5  10 6938.62 367.682   2
  10   5 -10 7133.74 359.740   6
 -10   5   9 953.553 95.9245   4
  10   5  -9 903.805 136.855   6
 -10   5   9 703.533 127.827   2
 -10   5   8 53.5668 44.7075   4
  10   5  -8 96.7368 82.0253   6
  10   5  -8-50.6445 58.8971   1
 -10   5   8 69.7595 80.8301   2
 -10   5   7 1035.30 111.734   4
  10   5  -7 1090.77 146.883   2
  10   5  -7 1206.40 124.965   1
  10   5  -6 8176.86 312.572   1
 -10   5   6 8897.02 305.152   4
  10   5  -6 7873.36 352.603   2
  10   5  -5 4831.29 250.218   1
 -10   5   5 4865.03 238.943   4
  10   5  -5 4273.94 268.077   2
 -10   5   5 4613.54 163.693   6
  10   5  -4 7715.54 334.091   1
 -10   5   4 7653.45 310.362   4
  10   5  -4 7715.79 358.486   2
 -10   5   4 7955.90 213.330   6
 -10   5   3 777.623 116.554   4
  10   5  -3 796.474 138.204   2
 -10   5   3 880.385 78.1191   6
  10   5  -3 888.147 132.932   1
 -10   5   2 92.4928 68.4244   4
  10   5  -2 117.521 83.2044   2
 -10   5   2 35.3311 34.6482   6
  10   5  -2 74.6400 79.7880   1
 -10   5   1 945.833 134.947   4
  10   5  -1 698.147 134.414   2
 -10   5   1 889.102 89.7295   6
  10   5  -1 801.697 135.824   1
  10   5   0 7677.80 381.034   1
 -10   5   0 7273.49 359.221   4
  10   5   0 7636.48 387.378   2
 -10   5   0 7583.56 256.726   6
  10   5   1 2690.51 243.457   1
 -10   5  -1 2697.68 234.872   4
  10   5   1 2713.67 248.503   2
 -10   5  -1 2616.56 165.992   6
  10   5   2 3484.83 286.875   1
 -10   5  -2 4123.98 296.657   4
  10   5   2 3715.90 290.144   2
 -10   5  -2 3902.30 217.720   6
 -10   5  -3 786.355 156.257   4
  10   5   3 812.260 160.464   2
  10   5   3 726.109 155.501   1
 -10   5  -4 467.715 126.189   4
  10   5   4 586.482 145.486   2
  10   5   4 371.842 130.789   1
 -10   5  -5 574.468 148.714   4
  10   5   5 913.216 174.570   2
 -10   5  -6 1555.59 228.580   4
  10   5   6 1815.01 234.474   2
 -10   5  -7 665.758 174.121   4
  10   5   7 809.476 182.499   2
  10   6 -17 615.140 144.640   4
  10   6 -16-12.7494 101.958   4
  10   6 -15 145.454 96.9766   4
  10   6 -15 364.002 122.743   6
 -10   6  15 97.6219 117.636   2
  10   6 -14 970.895 166.525   4
  10   6 -14 681.547 158.351   6
 -10   6  14 756.636 164.041   2
  10   6 -13 254.184 112.816   6
  10   6 -13 303.336 118.777   4
 -10   6  13 82.9530 108.648   2
  10   6 -12 960.051 167.649   6
 -10   6  12 1062.50 197.342   2
  10   6 -11 680.078 116.882   2
  10   6 -11 702.365 143.734   6
 -10   6  11 628.281 150.288   2
 -10   6  10 5121.41 233.950   4
  10   6 -10 5138.25 285.131   2
 -10   6  10 4750.83 316.314   2
  10   6 -10 5029.20 331.489   6
 -10   6   9 4197.06 217.516   4
  10   6  -9 4067.78 262.968   2
 -10   6   9 3645.21 274.002   2
  10   6  -9 4259.11 302.179   6
 -10   6   8 12190.5 382.829   4
  10   6  -8 12147.5 452.665   2
 -10   6   8 11967.7 465.524   2
  10   6  -8 12243.6 501.825   6
 -10   6   7 4471.71 237.571   4
  10   6  -7 4192.26 268.327   2
 -10   6   7 4267.73 271.720   2
 -10   6   6 2921.87 202.387   4
  10   6  -6 2833.99 229.465   2
 -10   6   5 1069.22 134.053   4
  10   6  -5 1158.53 155.409   2
 -10   6   5 936.829 95.9878   6
 -10   6   4 2860.49 216.540   4
  10   6  -4 2847.30 236.748   2
 -10   6   4 2953.57 160.795   6
 -10   6   3 5044.55 287.599   4
  10   6  -3 4320.21 288.906   2
 -10   6   3 4994.34 212.506   6
 -10   6   2 12278.3 459.981   4
  10   6  -2 11852.3 488.841   2
 -10   6   2 12329.8 337.684   6
 -10   6   1 3894.89 275.658   4
  10   6  -1 3810.40 285.394   2
 -10   6   1 3927.32 199.354   6
 -10   6   0 5099.71 321.273   4
  10   6   0 5267.41 341.963   2
 -10   6   0 5294.51 240.610   6
 -10   6  -1 945.718 161.675   4
 -10   6  -1 785.634 112.288   6
  10   6   1 600.455 146.591   2
 -10   6  -2 991.531 174.819   4
 -10   6  -2 837.832 115.666   6
  10   6   2 894.392 169.679   2
 -10   6  -3 319.280 122.630   4
  10   6   3 236.541 114.855   2
 -10   6  -4 647.130 160.157   4
  10   6   4 907.987 183.538   2
 -10   6  -5 422.162 158.683   4
  10   6   5 433.263 148.710   2
 -10   6  -6 72.6393 124.591   4
  10   7 -16 1605.28 228.034   4
  10   7 -15 387.103 125.702   4
  10   7 -14 179.711 115.568   4
 -10   7  14 151.911 120.935   2
  10   7 -13 129.127 106.459   4
  10   7 -13 7.30904 111.393   6
 -10   7  13 14.3889 118.370   2
  10   7 -12 1747.89 222.651   6
 -10   7  12 1866.84 244.545   2
  10   7 -11 1352.31 160.776   2
  10   7 -11 1245.96 195.536   6
 -10   7  11 1496.42 229.410   2
  10   7 -10 4883.38 287.337   2
 -10   7  10 5224.03 350.588   2
  10   7 -10 5364.12 363.266   6
  10   7  -9 1836.87 191.017   2
  10   7  -9 1801.67 225.832   6
 -10   7   9 1960.67 222.917   2
 -10   7   8 18.7630 63.3211   4
  10   7  -8 9.74587 70.9069   2
  10   7  -8-18.0271 88.9748   6
 -10   7   8 121.743 101.282   2
 -10   7   7 752.184 123.125   4
  10   7  -7 446.397 116.076   2
 -10   7   7 578.973 132.135   2
 -10   7   6 2271.69 204.207   4
  10   7  -6 2509.90 224.168   2
 -10   7   5 705.140 124.336   4
  10   7  -5 644.601 130.675   2
 -10   7   4 2744.44 226.033   4
  10   7  -4 3105.57 258.468   2
 -10   7   3 553.139 127.708   4
  10   7  -3 407.896 126.029   2
 -10   7   2-52.6786 99.6916   4
  10   7  -2 63.6809 96.2433   2
 -10   7   1 1634.39 201.961   4
  10   7  -1 2192.31 237.160   2
 -10   7   0 5659.03 366.208   4
  10   7   0 4885.95 353.058   2
 -10   7  -1 1172.81 210.492   4
  10   7   1 1550.58 216.936   2
  10   7   2 1975.86 243.375   2
 -10   7  -2 1906.76 239.061   4
 -10   7  -3 100.359 106.686   4
  10   7   3 240.683 135.928   2
 -10   7  -4 374.494 152.844   4
 -10   8  12 595.285 171.491   2
 -10   8  11 364.563 148.585   2
 -10   8  10 407.352 152.490   2
  10   8  -9 1284.67 173.566   2
  10   8  -9 1268.84 208.741   6
 -10   8   9 1419.59 206.968   2
  10   8  -8 2272.89 221.101   2
 -10   8   8 2643.83 252.762   2
  10   8  -8 2485.70 283.271   6
 -10   8   7 458.367 114.791   2
 -10   8   7 498.948 115.104   4
  10   8  -7 644.604 138.985   2
  10   8  -7 602.620 164.337   6
 -10   8   6 712.949 138.451   4
  10   8  -6 656.600 136.551   2
 -10   8   5 167.087 93.5932   4
  10   8  -5 160.226 105.941   2
 -10   8   4 621.555 136.109   4
  10   8  -4 173.720 113.555   2
 -10   8   3 712.107 159.411   4
  10   8  -3 759.843 164.378   2
 -10   8   2 2700.16 266.255   4
  10   8  -2 2618.82 263.050   2
 -10   8   1 1290.49 220.563   4
  10   8  -1 1498.86 216.053   2
 -10   8   0 179.538 121.474   4
  10   8   0 174.356 104.833   2
 -10   8  -1 344.831 130.768   4
 -10   9  10 762.090 179.155   2
  10   9  -6 1541.11 209.271   2
  10   9  -5 737.519 162.316   2
 -10   9   4 2005.97 237.771   4
  10   9  -4 2066.49 249.695   2
 -10   9   3 365.387 106.234   4
  10   9  -3 200.885 120.148   2
 -10   9   2 226.860 120.737   4
  10   9  -2 377.917 140.345   2
 -11  -9   6 378.570 149.366   7
 -11  -9   5 287.410 138.432   7
 -11  -8   8 698.197 160.452   7
 -11  -8   7 484.346 138.415   7
 -11  -8   7 701.130 175.618   5
 -11  -8   6 464.444 147.550   7
 -11  -8   6 243.809 124.117   5
 -11  -8   5 306.106 137.253   7
 -11  -8   5 189.609 125.960   5
 -11  -8   4 655.701 163.140   7
 -11  -8   4 633.286 166.289   5
 -11  -8   3 645.483 164.651   7
 -11  -8   3 1053.33 192.100   5
 -11  -8   2 260.698 129.714   7
 -11  -8   2 301.879 148.307   5
 -11  -8   1 82.0934 117.683   7
 -11  -8   1 650.423 173.378   5
 -11  -8   0 352.278 137.496   5
 -11  -8  -1 1104.43 201.179   5
  11  -7 -16 1602.59 219.997   3
  11  -7 -15 264.072 118.610   7
  11  -7 -15 550.011 158.629   3
  11  -7 -14 816.456 185.431   7
  11  -7 -14 444.609 138.297   3
  11  -7 -13 440.439 150.417   3
  11  -7 -12 495.651 150.992   3
 -11  -7  12 568.321 169.191   5
  11  -7 -11 482.847 156.759   3
 -11  -7  11 615.133 160.584   5
  11  -7 -10 1939.71 233.691   3
 -11  -7  10 1676.35 232.871   5
 -11  -7   9 629.780 144.695   7
  11  -7  -9 728.231 167.590   3
 -11  -7   9 628.543 158.190   5
 -11  -7   8 664.790 137.596   7
  11  -7  -8 537.759 149.612   3
 -11  -7   8 559.593 151.404   5
 -11  -7   7 457.860 137.334   7
  11  -7  -7 621.552 152.143   3
 -11  -7   7 572.649 155.307   5
 -11  -7   6 162.226 93.7551   7
  11  -7  -6 302.468 126.625   3
 -11  -7   6 410.205 133.677   5
 -11  -7   5 362.783 124.873   7
  11  -7  -5 304.922 123.630   3
 -11  -7   5 242.585 120.096   5
 -11  -7   4 597.304 150.870   7
  11  -7  -4 721.101 165.495   3
 -11  -7   4 376.327 146.732   5
 -11  -7   3 455.208 133.568   7
  11  -7  -3 405.791 141.694   3
 -11  -7   3 448.805 177.583   5
 -11  -7   2 481.302 149.001   7
  11  -7  -2 485.704 142.443   3
 -11  -7   2 821.396 176.449   5
 -11  -7   1 1064.95 193.869   7
  11  -7  -1 1452.84 224.871   3
 -11  -7   1 1797.81 228.054   5
 -11  -7   0 112.831 108.523   7
  11  -7   0 407.413 142.940   3
 -11  -7   0 310.693 150.840   5
 -11  -7  -1 299.564 136.026   7
  11  -7   1 525.121 155.152   3
 -11  -7  -1 607.270 143.274   5
 -11  -7  -2 29.7558 120.295   7
  11  -7   2-93.0734 112.325   3
  11  -7   3 461.745 152.350   3
  11  -7   4 561.242 191.605   3
  11  -7   5 1689.46 240.429   3
  11  -6 -16 170.029 113.581   3
  11  -6 -15 116.059 94.2456   7
  11  -6 -15 382.613 143.876   3
 -11  -6  15 189.308 112.332   5
  11  -6 -14 477.881 130.531   7
  11  -6 -14 474.319 140.299   3
 -11  -6  14 451.931 165.850   5
  11  -6 -13 225.711 144.049   3
 -11  -6  13 35.5441 104.116   5
  11  -6 -12 1148.69 194.185   3
 -11  -6  12 925.079 180.155   5
  11  -6 -11 74.5935 99.8856   3
 -11  -6  11 38.2656 94.1296   5
 -11  -6  10 641.102 112.426   7
  11  -6 -10 597.992 146.010   3
 -11  -6  10 360.057 126.550   5
 -11  -6   9 408.785 107.613   7
  11  -6  -9 267.183 114.403   3
 -11  -6   9 284.290 119.600   5
 -11  -6   8 930.764 131.474   7
  11  -6  -8 975.218 169.267   3
 -11  -6   8 831.852 159.085   5
 -11  -6   7 887.268 132.047   7
  11  -6  -7 589.865 148.449   3
 -11  -6   7 417.299 133.995   5
 -11  -6   6 293.943 96.7378   7
  11  -6  -6 346.780 129.265   3
 -11  -6   6 189.398 96.3665   5
 -11  -6   5 215.372 96.7326   7
  11  -6  -5 488.800 137.578   3
 -11  -6   5 268.343 116.459   5
 -11  -6   4 688.207 130.018   7
  11  -6  -4 634.496 155.292   3
 -11  -6   4 989.216 164.047   5
 -11  -6   3 1021.55 174.602   7
  11  -6  -3 851.711 153.038   3
 -11  -6   3 1095.04 170.935   5
 -11  -6   2 451.210 136.249   7
  11  -6  -2 414.801 143.767   3
 -11  -6   2 367.019 114.329   5
 -11  -6   1 648.290 143.775   7
  11  -6  -1 1034.12 175.979   3
 -11  -6   1 833.932 149.061   5
 -11  -6   0-86.1427 88.0649   7
  11  -6   0 47.4921 102.097   3
 -11  -6   0-138.574 91.7154   5
 -11  -6  -1 1002.72 171.613   7
  11  -6   1 1211.01 192.063   3
 -11  -6  -1 1330.71 178.337   5
 -11  -6  -2 319.710 114.138   7
  11  -6   2 188.677 106.673   3
 -11  -6  -2 502.731 120.178   5
 -11  -6  -3 864.505 188.718   7
  11  -6   3 666.448 146.136   3
 -11  -6  -4 90.1785 109.615   7
  11  -6   4 207.273 109.555   3
  11  -6   5-50.7622 129.367   3
  11  -6   6 374.559 133.955   3
 -11  -5  18 533.802 150.540   5
  11  -5 -17 660.531 141.730   3
 -11  -5  17 779.422 174.895   5
  11  -5 -16 1197.99 177.283   3
 -11  -5  16 1094.82 186.569   5
  11  -5 -15 771.741 133.138   7
  11  -5 -15 571.699 134.362   3
 -11  -5  15 727.148 166.281   5
  11  -5 -14 849.963 140.532   7
  11  -5 -14 657.628 152.237   3
 -11  -5  14 978.764 177.191   5
  11  -5 -13 49.0386 96.5706   3
 -11  -5  13 222.879 104.538   5
  11  -5 -12 821.068 153.466   3
 -11  -5  12 487.734 123.252   5
 -11  -5  11 244.868 68.6044   7
  11  -5 -11 225.982 101.437   3
 -11  -5  11 336.096 119.000   5
 -11  -5  10 2606.96 172.661   7
  11  -5 -10 2799.19 249.649   3
 -11  -5  10 2529.04 253.123   5
 -11  -5   9 882.255 111.694   7
  11  -5  -9 998.961 159.865   3
 -11  -5   9 692.503 147.786   5
 -11  -5   8 737.955 115.464   7
  11  -5  -8 675.876 133.888   3
 -11  -5   8 664.114 142.519   5
 -11  -5   7 429.960 96.2494   7
  11  -5  -7 551.227 127.028   3
 -11  -5   7 634.393 137.382   5
 -11  -5   6 495.456 101.650   7
  11  -5  -6 517.696 115.879   3
 -11  -5   6 477.960 121.892   5
 -11  -5   5 592.383 109.870   7
  11  -5  -5 718.416 139.790   3
 -11  -5   5 617.016 134.002   5
 -11  -5   4 543.601 117.793   7
  11  -5  -4 618.621 143.316   3
 -11  -5   4 728.882 133.979   5
  11  -5  -3 548.107 95.7575   2
 -11  -5   3 626.239 109.798   7
  11  -5  -3 690.511 136.846   3
 -11  -5   3 569.029 123.388   5
 -11  -5   2 663.696 131.827   7
  11  -5  -2 856.159 153.309   3
 -11  -5   2 707.393 134.006   5
 -11  -5   1 2401.28 231.522   7
  11  -5  -1 2538.66 238.934   3
 -11  -5   1 2420.15 214.580   5
 -11  -5   0 376.838 126.272   7
  11  -5   0 470.565 126.736   3
 -11  -5   0 210.929 94.0436   5
 -11  -5  -1 833.759 165.909   7
  11  -5   1 887.016 156.301   3
 -11  -5  -1 728.102 122.799   5
 -11  -5  -2 269.923 127.883   7
  11  -5   2 255.187 115.075   3
 -11  -5  -2 283.805 89.4039   5
 -11  -5  -3 632.190 163.376   7
  11  -5   3 919.031 163.038   3
 -11  -5  -3 753.205 118.571   5
 -11  -5  -4 644.415 159.965   7
  11  -5   4 563.197 137.456   3
 -11  -5  -5 1295.59 224.646   7
  11  -5   5 1246.60 178.947   3
  11  -5   6 667.816 154.976   3
  11  -5   7 465.311 137.963   1
 -11  -4  20 968.191 197.692   5
 -11  -4  19 377.091 142.340   5
 -11  -4  18 1152.61 194.700   5
  11  -4 -17 357.200 107.290   3
 -11  -4  17 176.215 112.396   5
  11  -4 -16 709.767 129.763   3
 -11  -4  16 849.586 161.570   5
  11  -4 -15 773.780 126.529   7
  11  -4 -15 800.254 145.828   3
 -11  -4  15 757.104 152.745   5
  11  -4 -14 3098.42 218.001   7
  11  -4 -14 2968.75 239.238   3
 -11  -4  14 2825.70 260.502   5
  11  -4 -13 1897.14 195.974   3
 -11  -4  13 1558.27 196.029   5
 -11  -4  12 2165.20 105.071   7
  11  -4 -12 2280.50 212.370   3
 -11  -4  12 2213.78 230.368   5
 -11  -4  11 226.445 46.8504   7
  11  -4 -11 271.630 95.5577   3
 -11  -4  11 281.994 102.456   5
 -11  -4  10 922.483 92.4186   7
  11  -4 -10 883.729 134.759   3
 -11  -4  10 975.993 152.442   5
 -11  -4   9 630.580 81.6721   7
  11  -4  -9 958.039 148.711   3
 -11  -4   9 776.787 137.747   5
 -11  -4   8 1261.59 120.123   7
  11  -4  -8 1299.68 162.798   3
 -11  -4   8 1098.88 160.283   5
 -11  -4   7 673.010 99.2931   7
  11  -4  -7 822.286 133.627   3
 -11  -4   7 641.907 126.719   5
 -11  -4   6 304.012 87.3819   7
  11  -4  -6 185.379 85.9629   3
 -11  -4   6 304.510 118.901   5
 -11  -4   5 194.572 75.0611   7
  11  -4  -5 252.066 95.4969   3
 -11  -4   5 250.009 93.1967   5
 -11  -4   4 585.363 105.535   7
  11  -4  -4 669.800 99.6656   2
  11  -4  -4 785.253 136.069   3
 -11  -4   4 602.901 118.938   5
 -11  -4   3 1299.97 151.316   7
  11  -4  -3 1326.26 138.401   2
  11  -4  -3 1626.98 184.917   3
 -11  -4   3 1367.65 156.758   5
 -11  -4   2 849.804 133.982   7
  11  -4  -2 703.551 98.9388   2
  11  -4  -2 549.317 119.313   3
 -11  -4   2 674.681 124.246   5
 -11  -4   1 814.785 136.506   7
  11  -4  -1 877.675 107.681   2
  11  -4  -1 818.401 141.343   3
 -11  -4   1 1007.93 130.300   5
 -11  -4   0 351.088 101.197   7
  11  -4   0 331.067 79.0976   2
  11  -4   0 306.962 95.2818   3
 -11  -4   0 227.258 75.5123   5
 -11  -4  -1 1812.14 198.673   7
  11  -4   1 2216.70 210.895   3
 -11  -4  -1 2128.17 170.723   5
  11  -4   2 1661.22 128.626   2
 -11  -4  -2 1519.00 195.269   7
 -11  -4  -2 1643.93 148.511   5
  11  -4   2 1680.97 186.409   3
 -11  -4  -3 2692.02 258.049   7
  11  -4   3 3118.07 257.589   3
 -11  -4  -3 3233.49 192.733   5
 -11  -4  -4 655.235 151.515   7
  11  -4   4 876.417 145.274   3
 -11  -4  -5 697.235 163.686   7
  11  -4   5 961.287 154.987   3
  11  -4   6 598.805 132.857   1
 -11  -4  -6 294.642 140.488   7
  11  -4   6 345.706 103.011   3
 -11  -4  -7 1109.30 208.906   7
  11  -4   7 1924.25 219.226   1
  11  -4   8 512.873 142.504   1
 -11  -3  21 525.468 160.457   5
 -11  -3  20 678.803 169.880   5
 -11  -3  19 371.882 137.839   5
 -11  -3  18 185.704 104.023   5
  11  -3 -18 219.201 75.4999   3
 -11  -3  17 252.995 109.210   5
  11  -3 -17 103.511 68.0063   3
  11  -3 -16 2544.09 213.113   3
 -11  -3  16 2935.27 263.148   5
  11  -3 -15 1716.90 137.893   7
 -11  -3  15 1337.77 178.687   5
  11  -3 -15 1161.32 150.200   3
  11  -3 -14 2117.31 157.475   7
  11  -3 -14 2009.67 191.234   3
 -11  -3  14 1618.46 199.678   5
  11  -3 -13 314.772 71.3190   7
 -11  -3  13 311.733 108.772   5
  11  -3 -13 343.359 103.621   3
 -11  -3  12 1047.56 158.640   5
  11  -3 -12 787.236 122.274   3
 -11  -3  11 595.444 42.1869   7
 -11  -3  11 823.812 133.859   5
  11  -3 -11 802.707 123.150   3
 -11  -3  10 2235.38 103.403   7
  11  -3 -10 2159.11 196.416   3
 -11  -3  10 2277.70 204.394   5
 -11  -3   9 392.729 61.9845   7
 -11  -3   9 408.255 111.566   5
  11  -3  -9 416.055 106.637   3
 -11  -3   8 386.804 66.8636   7
 -11  -3   8 362.440 108.825   5
  11  -3  -8 445.631 110.156   3
 -11  -3   7 1566.89 124.825   7
 -11  -3   7 1323.85 158.906   5
  11  -3  -7 1648.50 172.592   3
 -11  -3   6 1873.82 139.487   7
  11  -3  -6 1772.46 183.259   3
 -11  -3   6 1715.13 173.515   5
  11  -3  -5 1858.81 167.983   2
 -11  -3   5 1596.16 141.264   7
 -11  -3   5 1477.22 161.991   5
  11  -3  -5 1544.86 170.095   3
  11  -3  -4 1859.64 162.082   2
 -11  -3   4 1503.21 144.395   7
 -11  -3   4 1471.73 154.118   5
  11  -3  -4 1705.66 176.109   3
 -11  -3   3 386.931 91.7830   7
  11  -3  -3 320.049 85.1671   4
  11  -3  -3 305.161 77.5401   2
 -11  -3   3 335.833 89.8558   5
  11  -3  -3 396.923 109.013   3
  11  -3  -2 355.999 100.885   4
 -11  -3   2 339.814 97.9807   7
  11  -3  -2 477.769 93.9475   2
 -11  -3   2 370.518 91.3179   5
  11  -3  -2 433.012 111.110   3
 -11  -3   1 2475.67 206.252   7
  11  -3  -1 2551.50 172.198   2
  11  -3  -1 2579.77 208.774   3
 -11  -3   1 2377.08 178.212   5
 -11  -3   0 879.449 141.568   7
 -11  -3   0 693.730 95.6485   5
  11  -3   0 783.725 129.847   3
  11  -3   0 855.422 109.251   2
 -11  -3  -1 648.841 129.980   7
  11  -3   1 612.950 76.8100   6
  11  -3   1 1050.37 144.301   3
 -11  -3  -1 920.480 111.098   5
  11  -3   2 429.340 78.3736   2
 -11  -3  -2 470.805 119.472   7
  11  -3   2 322.470 69.4007   6
  11  -3   2 500.006 100.911   5
  11  -3   2 392.994 101.134   3
 -11  -3  -2 659.564 94.4790   5
  11  -3   3 1825.90 145.248   2
 -11  -3  -3 1485.75 193.837   7
  11  -3   3 1814.72 186.531   3
 -11  -3  -3 1729.95 132.858   5
  11  -3   4 1796.84 142.961   2
 -11  -3  -4 1678.92 213.768   7
  11  -3   4 1691.66 176.827   3
 -11  -3  -5 2515.26 262.553   7
  11  -3   5 2726.46 223.073   3
  11  -3   5 2496.52 227.114   1
  11  -3   6 275.132 127.185   1
 -11  -3  -6 459.619 138.656   7
  11  -3   6 120.185 72.2423   3
  11  -3   7 381.217 144.954   1
 -11  -3  -7 341.547 140.611   7
 -11  -3  -8 363.815 127.651   7
  11  -3   8 461.172 158.539   1
  11  -3   9 764.700 166.885   1
 -11  -2  21 397.593 147.288   5
 -11  -2  20 784.037 179.676   5
 -11  -2  19 942.519 167.762   5
  11  -2 -18 2164.29 190.213   3
 -11  -2  18 2271.84 238.361   5
 -11  -2  17 319.283 113.544   5
  11  -2 -17 238.762 87.3690   3
 -11  -2  16 1318.93 179.946   5
  11  -2 -16 1485.29 162.018   3
 -11  -2  15 380.947 113.594   5
  11  -2 -15 473.941 57.0623   7
  11  -2 -15 500.301 112.688   3
  11  -2 -14 2632.91 126.700   7
 -11  -2  14 2606.02 230.281   5
  11  -2 -14 2624.81 208.018   3
  11  -2 -13 1633.59 164.513   3
  11  -2 -13 1501.95 106.538   7
 -11  -2  13 1474.93 177.248   5
  11  -2 -12 2013.76 185.016   3
 -11  -2  12 1668.48 186.035   5
  11  -2 -11 132.858 76.4604   3
 -11  -2  11 190.942 87.9445   5
  11  -2 -10 303.124 87.4298   3
 -11  -2  10 203.646 87.5378   5
  11  -2  -9 808.351 124.784   3
 -11  -2   9 823.164 137.878   5
 -11  -2   8 4308.42 156.973   7
 -11  -2   8 4450.47 258.911   5
  11  -2  -8 4561.13 261.201   3
  11  -2  -7 1197.55 143.851   3
 -11  -2   7 1069.70 93.5467   7
 -11  -2   7 1132.92 138.192   5
  11  -2  -6 1477.65 155.286   3
  11  -2  -6 1316.73 93.3168   4
 -11  -2   6 1415.18 114.948   7
 -11  -2   6 1409.89 152.839   5
  11  -2  -5 1499.11 109.640   4
 -11  -2   5 1432.02 121.520   7
 -11  -2   5 1320.39 143.549   5
  11  -2  -5 1370.12 143.540   2
  11  -2  -5 1551.92 154.230   3
  11  -2  -4 827.269 96.9290   4
 -11  -2   4 997.264 114.797   7
 -11  -2   4 963.695 123.558   5
  11  -2  -4 823.534 110.845   2
  11  -2  -4 1266.06 143.212   3
  11  -2  -3 3965.96 199.170   4
 -11  -2   3 3873.92 221.207   7
  11  -2  -3 4141.07 233.568   5
 -11  -2   3 4133.04 227.707   5
  11  -2  -3 4110.85 246.285   3
  11  -2  -2 925.946 112.230   4
 -11  -2   2 834.990 122.777   7
  11  -2  -2 820.604 115.509   5
 -11  -2   2 753.540 109.931   5
  11  -2  -2 715.207 118.488   3
  11  -2  -1 192.225 75.4239   4
 -11  -2   1 277.606 91.3884   7
  11  -2  -1 220.146 36.9461   6
  11  -2  -1 147.510 65.3869   5
 -11  -2   1 229.843 73.4755   5
  11  -2  -1 296.537 90.4434   3
 -11  -2   0 308.101 98.6199   7
  11  -2   0 206.539 46.7030   6
  11  -2   0 236.041 66.2485   5
 -11  -2   0 132.557 64.4260   5
  11  -2   0 329.705 98.2124   3
 -11  -2  -1 1879.90 189.438   7
  11  -2   1 1758.54 117.035   6
 -11  -2  -1 1581.13 131.875   5
  11  -2   1 2208.42 186.061   3
  11  -2   1 1761.38 145.672   5
  11  -2   2 1531.90 140.291   2
 -11  -2  -2 1576.46 181.683   7
  11  -2   2 1465.53 119.216   6
  11  -2   2 1445.53 153.337   3
 -11  -2  -2 1597.79 124.198   5
  11  -2   2 1399.79 127.295   5
  11  -2   3 2745.57 185.271   2
 -11  -2  -3 2682.71 238.794   7
  11  -2   3 2016.38 151.995   6
  11  -2   3 2467.50 195.949   3
 -11  -2  -3 2470.20 139.555   5
  11  -2   3 2578.97 162.745   5
 -11  -2  -4 492.297 132.083   7
  11  -2   4 398.873 91.2752   2
 -11  -2  -4 298.436 50.1667   5
  11  -2   4 289.803 100.595   1
  11  -2   4 446.623 95.4106   3
  11  -2   5 1813.43 200.997   1
  11  -2   5 2135.59 173.981   2
 -11  -2  -5 1403.71 199.320   7
  11  -2   5 1671.76 161.033   3
  11  -2   6 346.742 117.267   1
 -11  -2  -6 329.523 117.131   7
  11  -2   6 329.291 87.2166   2
  11  -2   6 359.145 83.0697   3
 -11  -2  -7 2031.30 251.673   7
  11  -2   7 2237.41 234.614   1
  11  -2   8 1245.80 208.001   1
  11  -2   9 816.207 175.454   1
  11  -2  10 78.8511 99.5071   1
 -11  -1  21 319.463 141.646   5
 -11  -1  20 743.585 163.596   5
 -11  -1  19 221.416 114.199   5
 -11  -1  18 1389.91 189.051   5
  11  -1 -18 1730.85 173.002   3
 -11  -1  17 1776.51 203.606   5
  11  -1 -17 1882.57 173.042   3
 -11  -1  16 4519.53 312.337   5
  11  -1 -16 4423.71 267.079   3
  11  -1 -15 504.642 100.611   3
 -11  -1  15 285.321 106.779   5
 -11  -1  14 1821.44 196.549   5
  11  -1 -14 2328.74 190.839   3
  11  -1 -13 173.328 79.1329   3
 -11  -1  13-7.77273 70.6996   5
  11  -1 -12 1439.66 148.215   3
 -11  -1  12 1108.38 153.735   5
  11  -1 -12 1040.23 54.4154   7
  11  -1 -11 1784.15 83.7241   7
 -11  -1  11 1946.99 187.623   5
  11  -1 -11 2097.38 181.795   3
  11  -1 -10 3923.15 137.113   7
 -11  -1  10 4118.70 260.641   5
  11  -1 -10 4168.46 241.125   3
  11  -1  -9 1190.91 141.132   3
  11  -1  -9 1026.84 81.9452   7
 -11  -1   9 963.622 134.609   5
  11  -1  -8 618.002 105.536   3
  11  -1  -8 609.226 70.2004   7
 -11  -1   8 744.964 115.814   5
  11  -1  -7 1374.93 74.2165   4
  11  -1  -7 1779.82 121.139   7
 -11  -1   7 1589.79 157.317   5
  11  -1  -7 1766.30 160.427   3
  11  -1  -6 1918.45 104.100   4
  11  -1  -6 2076.74 136.588   7
 -11  -1   6 2289.14 181.934   5
  11  -1  -6 1973.59 166.128   3
  11  -1  -5 1812.14 112.912   4
  11  -1  -5 1926.49 142.675   7
 -11  -1   5 1856.05 159.728   5
  11  -1  -5 1756.78 153.877   5
  11  -1  -5 1706.54 155.622   3
  11  -1  -4 1664.90 120.059   4
  11  -1  -4 1807.14 143.889   7
 -11  -1   4 1692.43 147.130   5
  11  -1  -4 1902.72 157.712   5
  11  -1  -4 1592.42 151.931   3
  11  -1  -3 710.726 111.490   3
  11  -1  -3 744.744 95.8194   4
 -11  -1   3 683.059 105.942   7
  11  -1  -3 749.217 107.721   7
  11  -1  -3 406.966 28.8286   6
 -11  -1   3 697.666 101.517   5
  11  -1  -3 946.784 117.845   5
  11  -1  -2 1032.21 133.702   3
  11  -1  -2 1020.36 114.424   4
 -11  -1   2 1000.04 123.510   7
  11  -1  -2 1076.54 131.630   7
  11  -1  -2 926.461 57.5484   6
 -11  -1   2 1253.92 134.253   5
  11  -1  -2 1066.48 114.656   5
  11  -1  -1 4106.74 224.603   4
 -11  -1   1 3838.82 234.766   7
  11  -1  -1 3852.89 137.174   6
 -11  -1   1 4049.03 209.770   5
  11  -1  -1 3745.91 198.812   5
  11  -1  -1 4133.19 236.814   3
 -11  -1   0 2141.72 189.224   7
  11  -1   0 1973.16 114.403   6
 -11  -1   0 2051.26 148.069   5
  11  -1   0 1969.20 149.407   5
  11  -1   0 2167.04 174.391   3
  11  -1   1 1191.14 131.892   2
 -11  -1  -1 1479.32 173.778   7
  11  -1   1 1322.68 109.294   6
 -11  -1  -1 1424.43 123.233   5
  11  -1   1 1498.91 123.735   5
  11  -1   1 1375.77 147.353   3
  11  -1   2 29.2256 55.9181   2
 -11  -1  -2 59.4391 78.5727   7
  11  -1   2-29.1030 51.5290   6
 -11  -1  -2 76.5895 45.6291   5
  11  -1   2-17.5682 46.6905   5
  11  -1   2 36.1181 65.6115   3
  11  -1   3 2320.71 181.479   2
  11  -1   3 2110.68 154.176   6
  11  -1   3 2323.89 205.808   1
  11  -1   3 2296.37 177.597   3
  11  -1   3 2106.34 131.448   5
  11  -1   4 595.525 110.299   2
  11  -1   4 597.766 104.010   3
  11  -1   4 523.062 119.989   1
  11  -1   5 5052.01 274.177   2
  11  -1   5 4852.27 306.346   1
  11  -1   5 4242.72 232.663   3
  11  -1   6 2291.84 194.455   2
  11  -1   6 2092.35 216.552   1
  11  -1   6 1951.05 157.632   3
  11  -1   7 1778.86 211.203   1
  11  -1   7 2085.70 195.086   2
  11  -1   8-53.2585 83.7847   2
  11  -1   8 0.60926 86.6294   1
  11  -1   9 722.691 151.982   1
  11  -1  10 405.256 130.226   1
 -11   0  21-60.7771 95.2329   5
 -11   0  20 3091.59 275.006   5
  11   0 -19 1117.51 139.988   3
 -11   0  19 976.885 173.955   5
  11   0 -18 1638.33 166.902   3
 -11   0  18 1623.17 205.031   5
  11   0 -17 1167.37 149.427   3
 -11   0  17 900.209 160.652   5
  11   0 -16-1.26563 66.2187   3
 -11   0  16 7.37331 74.3458   5
  11   0 -15 1408.00 157.837   3
 -11   0  15 998.615 152.771   5
 -11   0  14 4617.45 294.884   5
  11   0 -14 4156.54 251.000   3
  11   0 -13 295.635 88.1449   3
 -11   0  13 251.410 78.6735   6
 -11   0  13 240.019 90.9151   5
  11   0 -12 2141.46 153.485   6
 -11   0  12 1996.01 157.919   6
 -11   0  12 2098.00 197.288   5
  11   0 -12 2139.28 181.955   3
  11   0 -11 1380.06 149.855   3
  11   0 -11 1389.05 116.766   6
 -11   0  11 1140.66 155.588   5
  11   0 -10 402.762 98.2190   3
  11   0 -10 520.834 72.1584   6
 -11   0  10 505.992 106.941   5
  11   0  -9 605.258 39.4104   4
  11   0  -9 782.492 113.518   3
  11   0  -9 674.261 54.7194   7
  11   0  -9 772.315 74.7623   6
 -11   0   9 614.715 115.253   5
  11   0  -8 4162.45 121.569   4
  11   0  -8 4226.30 148.072   7
  11   0  -8 4247.30 148.516   6
 -11   0   8 4079.01 246.399   5
  11   0  -8 4032.70 235.868   3
  11   0  -7 2922.91 118.751   4
  11   0  -7 2634.87 131.414   7
  11   0  -7 2813.74 112.180   6
 -11   0   7 2984.02 206.285   5
  11   0  -7 2901.38 200.017   3
  11   0  -6 410.527 81.6107   3
  11   0  -6 475.237 60.6932   4
  11   0  -6 309.225 62.4816   7
  11   0  -6 339.594 42.7650   6
 -11   0   6 415.267 96.1609   5
  11   0  -6 319.261 88.8215   5
  11   0  -5 299.705 81.3230   3
  11   0  -5 300.760 56.6498   4
  11   0  -5 438.140 73.7677   7
  11   0  -5 226.898 37.6959   6
 -11   0   5 378.087 91.1115   5
  11   0  -5 413.821 91.8295   5
  11   0  -4 2623.80 148.890   4
  11   0  -4 2832.54 169.030   7
 -11   0   4 2598.15 181.732   5
  11   0  -4 2937.84 183.840   5
  11   0  -4 2547.13 185.689   3
  11   0  -3 4337.79 201.020   4
  11   0  -3 4139.75 217.619   7
 -11   0   3 4201.59 224.047   5
  11   0  -3 3921.37 211.264   5
  11   0  -3 4146.35 231.400   3
  11   0  -2 514.432 93.6103   3
  11   0  -2 664.152 99.1145   4
  11   0  -2 730.732 111.725   7
 -11   0   2 780.495 107.849   5
  11   0  -2 792.652 99.1432   5
  11   0  -1 563.168 96.2587   3
  11   0  -1 517.386 95.8196   4
 -11   0   1 601.163 89.7030   5
  11   0  -1 443.112 84.6454   5
  11   0   0 1424.37 144.022   2
 -11   0   0 1380.34 128.285   5
  11   0   0 1265.85 115.328   5
  11   0   0 1382.28 137.605   3
  11   0   1 2060.39 174.116   2
  11   0   1 2261.89 194.541   1
  11   0   1 2018.24 136.158   5
  11   0   1 1945.65 162.632   3
  11   0   2 214.718 72.3274   3
  11   0   2 215.031 83.6953   1
  11   0   2 322.527 94.7207   2
  11   0   2 167.746 65.6461   6
  11   0   2 195.125 55.6843   5
  11   0   3 4813.74 266.684   2
  11   0   3 4179.89 230.214   6
  11   0   3 4598.87 287.421   1
  11   0   3 4554.40 234.635   3
  11   0   3 3988.62 159.586   5
  11   0   4 1090.24 146.460   2
  11   0   4 1534.72 177.248   1
  11   0   4 1472.53 138.841   3
  11   0   5-43.0967 77.3587   1
  11   0   5-49.1227 56.6787   3
  11   0   6 1141.77 176.902   1
  11   0   6 1275.15 164.118   2
  11   0   7 2041.68 203.148   2
  11   0   7 1856.02 218.586   1
  11   0   8 1512.77 205.302   1
  11   0   8 1615.05 188.720   2
  11   0   9 3708.17 316.684   1
  11   0   9 4220.75 302.484   2
  11   0  10 32.2251 130.332   1
 -11   1  20 723.417 150.796   5
  11   1 -19 4.58373 66.6239   3
 -11   1  19-152.876 107.969   5
  11   1 -18 1620.27 170.499   3
 -11   1  18 1613.97 201.598   5
 -11   1  17 1791.07 202.450   5
  11   1 -17 2069.10 193.897   3
  11   1 -16 4268.41 279.396   6
 -11   1  16 4427.52 302.358   5
  11   1 -16 4116.72 262.745   3
  11   1 -15 594.454 115.335   3
  11   1 -15 541.775 62.3457   4
  11   1 -15 489.609 105.037   6
 -11   1  15 465.804 120.031   5
  11   1 -14 2459.28 116.617   4
  11   1 -14 2224.78 186.103   6
 -11   1  14 1922.76 169.480   6
 -11   1  14 2234.12 212.301   5
  11   1 -13 2.17126 28.1387   4
  11   1 -13-37.1719 57.4626   6
 -11   1  13-33.0623 53.8141   6
 -11   1  13 28.3827 83.3990   5
  11   1 -12 1377.22 86.4182   4
  11   1 -12 1409.78 136.325   6
 -11   1  12 1338.62 121.399   6
 -11   1  12 1462.61 174.187   5
  11   1 -11 1788.40 100.929   4
  11   1 -11 2064.65 150.436   6
 -11   1  11 1797.12 127.251   6
 -11   1  11 2095.08 195.951   5
  11   1 -10 4133.26 194.963   6
 -11   1  10 3670.09 156.909   6
 -11   1  10 3497.36 240.949   5
  11   1  -9 1145.18 106.082   6
 -11   1   9 1335.54 158.716   5
  11   1  -8 699.849 70.5189   7
  11   1  -8 723.896 81.9423   6
 -11   1   8 814.555 122.977   5
  11   1  -7 1586.33 108.470   4
  11   1  -7 1646.21 108.059   7
  11   1  -7 1413.30 105.422   6
 -11   1   7 1943.75 175.518   5
  11   1  -6 2075.71 129.087   4
  11   1  -6 1992.89 128.600   7
  11   1  -6 1821.19 116.788   6
 -11   1   6 1832.03 170.256   5
  11   1  -6 2037.27 169.849   5
  11   1  -5 1790.03 132.636   4
  11   1  -5 2114.51 143.327   7
 -11   1   5 2154.13 174.939   5
  11   1  -5 2067.28 165.804   5
  11   1  -4 1966.23 141.858   4
  11   1  -4 1583.62 133.912   7
 -11   1   4 1825.29 163.647   5
  11   1  -4 1790.20 149.609   5
 -11   1   3 577.542 88.1882   4
  11   1  -3 832.303 105.493   4
  11   1  -3 748.103 105.195   7
 -11   1   3 855.366 113.606   5
  11   1  -3 745.114 106.913   5
  11   1  -2 836.132 112.983   3
 -11   1   2 1037.48 117.340   4
  11   1  -2 1163.50 125.940   4
  11   1  -2 957.550 117.675   7
  11   1  -2 867.572 106.524   5
 -11   1   1 3989.21 223.548   4
  11   1  -1 3905.84 243.205   1
  11   1  -1 3971.65 201.776   5
  11   1  -1 3942.53 221.908   3
 -11   1   0 1940.73 172.415   4
  11   1   0 2146.69 187.210   2
  11   1   0 1996.15 184.419   1
  11   1   0 1920.18 140.754   5
  11   1   0 2103.19 166.730   3
  11   1   1 1364.84 134.535   3
 -11   1  -1 1126.39 145.201   4
  11   1   1 1308.50 157.934   1
  11   1   1 1208.35 148.043   2
  11   1   1 1139.01 107.012   5
  11   1   2-41.0668 61.3860   3
 -11   1  -2-13.7317 78.6217   4
  11   1   2 69.3581 78.7881   2
  11   1   2 115.933 89.6459   1
  11   1   2 96.1319 49.1835   5
 -11   1  -3 1964.36 195.728   4
  11   1   3 2114.30 197.507   2
  11   1   3 2142.62 204.064   1
  11   1   3 1755.13 147.216   3
  11   1   3 1802.65 105.350   5
  11   1   4 386.287 82.0453   3
  11   1   4 303.090 110.049   1
 -11   1  -4 432.746 117.357   4
  11   1   4 482.904 118.857   2
 -11   1  -5 5311.18 338.947   4
  11   1   5 4958.81 308.210   2
  11   1   5 5316.39 333.950   1
  11   1   5 4605.20 221.923   3
 -11   1  -6 2211.66 239.685   4
  11   1   6 2368.57 236.812   1
  11   1   6 2281.11 219.757   2
 -11   1  -7 1660.59 223.262   4
  11   1   7 2203.62 225.981   2
  11   1   7 2156.00 237.904   1
 -11   1  -8 91.1550 100.758   4
  11   1   8-144.327 110.765   1
  11   1   8-51.1781 94.4999   2
  11   1   9 583.581 158.288   1
 -11   1  -9 776.065 180.112   4
  11   1   9 754.067 156.832   2
  11   1  10 841.304 180.454   2
 -11   2  20 801.076 186.635   2
  11   2 -19 1233.90 157.564   3
 -11   2  19 1389.50 225.973   2
  11   2 -18 2305.69 239.406   6
 -11   2  18 2081.03 241.498   2
  11   2 -17 381.751 118.663   6
 -11   2  17 499.538 134.509   2
 -11   2  16 1894.52 224.279   2
  11   2 -16 1821.43 138.377   4
  11   2 -16 1819.60 192.596   6
 -11   2  15 394.739 136.110   2
  11   2 -15 468.296 80.1470   4
  11   2 -15 321.692 98.4841   6
  11   2 -14 2568.75 151.809   4
  11   2 -14 2491.08 202.110   6
 -11   2  14 2302.79 174.108   6
 -11   2  14 2247.11 223.427   5
  11   2 -13 1525.64 120.945   4
  11   2 -13 1428.97 150.546   6
 -11   2  13 1452.75 129.619   6
 -11   2  13 1511.00 180.625   5
  11   2 -12 1956.73 132.097   4
  11   2 -12 2094.41 171.903   6
 -11   2  12 1596.39 126.801   6
 -11   2  12 1603.07 185.077   5
  11   2 -11 189.872 69.1745   6
 -11   2  11 218.216 57.3749   6
 -11   2  11 144.155 91.6294   5
  11   2 -10 223.336 66.1066   6
 -11   2  10 284.803 52.4831   6
 -11   2  10 335.764 97.7130   5
 -11   2   9 624.664 53.2123   6
  11   2  -9 734.376 98.1252   6
 -11   2   9 826.627 128.815   5
  11   2  -8 4046.71 202.284   6
 -11   2   8 3925.59 257.474   5
  11   2  -7 844.771 101.031   6
 -11   2   6 1394.13 94.2906   4
  11   2  -6 1377.39 125.291   7
 -11   2   5 1454.62 106.041   4
  11   2  -5 1411.75 132.951   7
  11   2  -4 996.456 113.405   4
  11   2  -4 1042.89 125.149   1
 -11   2   4 851.896 92.5621   4
  11   2  -4 974.638 119.618   7
  11   2  -4 1028.43 126.684   5
  11   2  -3 4065.77 227.551   4
 -11   2   3 4200.38 205.918   4
  11   2  -3 4467.66 238.668   7
  11   2  -3 3972.80 231.788   1
  11   2  -3 4409.67 232.640   5
 -11   2   2 690.080 105.919   4
  11   2  -2 890.214 132.026   2
  11   2  -2 981.478 134.826   1
  11   2  -2 911.772 114.342   5
 -11   2   1 402.026 93.6348   4
  11   2  -1 230.109 97.8907   2
  11   2  -1 166.401 78.7667   1
  11   2  -1 167.172 61.9922   5
 -11   2   0 244.161 88.7447   4
  11   2   0 330.312 105.878   2
  11   2   0 242.504 97.3808   1
  11   2   0 189.620 67.8556   5
 -11   2  -1 1805.49 178.325   4
  11   2   1 1766.32 185.684   1
  11   2   1 1773.64 180.031   2
  11   2   1 1545.48 127.842   5
  11   2   2 1712.72 186.199   1
 -11   2  -2 1286.49 162.952   4
  11   2   2 1495.17 171.471   2
  11   2   2 1421.61 116.570   5
  11   2   2 1724.88 151.685   3
 -11   2  -3 2472.72 227.015   4
  11   2   3 2840.30 232.793   2
  11   2   3 2958.98 249.716   1
  11   2   3 2666.55 181.852   3
  11   2   4 527.102 88.0339   3
 -11   2  -4 362.996 116.117   4
  11   2   4 682.307 137.371   2
  11   2   4 473.349 125.200   1
 -11   2  -5 1684.28 211.493   4
  11   2   5 1745.19 212.697   1
  11   2   5 1594.75 191.462   2
  11   2   5 1554.66 137.572   3
 -11   2  -6 191.939 109.902   4
  11   2   6 380.165 125.031   1
  11   2   6 440.792 140.065   2
 -11   2  -7 1911.19 247.487   4
  11   2   7 2503.08 257.894   1
  11   2   7 2533.97 250.541   2
  11   2   8 1328.04 204.323   1
 -11   2  -8 802.007 183.139   4
  11   2   8 1463.96 202.649   2
  11   2   9 1072.28 191.651   2
  11   2   9 462.333 157.423   1
  11   2  10 553.789 174.821   2
  11   3 -19 605.460 163.811   6
 -11   3  19 161.443 126.288   2
  11   3 -18 364.917 118.905   6
 -11   3  18 414.187 136.877   2
  11   3 -17 234.956 97.0395   6
 -11   3  17 152.172 119.894   2
  11   3 -16 3319.65 207.380   4
  11   3 -16 2838.87 248.474   6
 -11   3  16 2776.12 270.836   2
  11   3 -15 1657.33 150.278   4
  11   3 -15 1620.78 181.283   6
 -11   3  15 2037.77 230.695   2
  11   3 -14 2110.56 166.273   4
  11   3 -14 2059.52 196.259   6
 -11   3  14 1485.12 141.138   6
 -11   3  14 2070.81 230.872   2
  11   3 -13 333.188 82.1988   4
 -11   3  13 311.072 72.5759   6
  11   3 -13 395.680 106.410   6
  11   3 -13 443.684 56.3433   1
 -11   3  13 423.184 122.688   2
 -11   3  12 687.005 146.098   2
 -11   3  12 619.669 82.7371   6
  11   3 -12 887.207 126.282   6
  11   3 -12 698.335 72.9493   1
 -11   3  11 607.240 73.3177   6
  11   3 -11 675.078 115.422   6
  11   3 -11 756.911 82.4282   1
 -11   3  10 2163.01 115.314   6
  11   3 -10 2681.44 193.126   6
  11   3 -10 2609.66 145.694   1
 -11   3   9 298.038 39.5281   6
  11   3  -9 425.645 93.0187   6
  11   3  -9 372.026 69.0408   1
 -11   3   8 421.417 45.9454   4
  11   3  -8 445.666 77.1243   1
  11   3  -8 366.547 92.8918   6
 -11   3   7 1586.00 95.4559   4
  11   3  -7 1438.43 130.460   1
 -11   3   6 1591.22 106.570   4
  11   3  -6 1741.35 143.811   1
 -11   3   5 1696.16 122.068   4
  11   3  -5 1590.46 145.493   1
 -11   3   4 1636.91 132.966   4
  11   3  -4 1525.37 149.849   1
  11   3  -4 1518.51 157.519   7
 -11   3   3 267.864 72.9190   4
  11   3  -3 482.758 106.945   2
  11   3  -3 347.215 89.6267   1
  11   3  -2 336.118 91.0341   1
 -11   3   2 417.672 93.2241   4
  11   3  -2 369.906 102.971   2
  11   3  -2 408.392 92.7610   5
 -11   3   1 2290.30 186.077   4
  11   3  -1 2225.37 207.857   2
  11   3  -1 2174.34 192.364   1
  11   3  -1 2046.08 165.893   5
  11   3   0 694.775 102.257   5
 -11   3   0 663.535 117.533   4
  11   3   0 718.330 128.286   2
  11   3   0 643.842 118.704   1
  11   3   1 708.363 97.9950   5
 -11   3  -1 751.025 128.105   4
  11   3   1 681.581 132.890   2
  11   3   1 927.698 147.812   1
 -11   3  -2 467.712 114.230   4
  11   3   2 494.040 118.710   2
  11   3   2 506.618 121.686   1
 -11   3  -3 1543.27 184.620   4
  11   3   3 1961.53 212.376   1
  11   3   3 1794.64 201.735   2
 -11   3  -4 1716.31 205.207   4
  11   3   4 1810.37 216.904   1
  11   3   4 1778.86 207.031   2
  11   3   4 1546.05 147.791   3
 -11   3  -5 2680.40 264.929   4
  11   3   5 2772.51 266.278   1
  11   3   5 2631.53 254.473   2
  11   3   6 386.142 130.646   1
 -11   3  -6 346.056 124.164   4
  11   3   6 504.924 134.487   2
 -11   3  -7 341.868 145.283   4
  11   3   7 362.564 139.392   2
  11   3   7 506.969 163.218   1
 -11   3  -8 383.393 117.922   4
  11   3   8 309.107 133.032   2
  11   3   8 232.933 138.758   1
  11   3   9 950.324 202.228   2
  11   4 -18 1680.23 220.336   6
 -11   4  18 1792.90 247.247   2
  11   4 -17 183.846 77.3638   4
  11   4 -17 105.858 103.864   6
 -11   4  17 281.441 135.195   2
  11   4 -16 792.056 131.944   4
  11   4 -16 627.276 135.649   6
 -11   4  16 631.708 154.990   2
  11   4 -15 903.542 135.378   4
  11   4 -15 739.839 136.624   6
 -11   4  15 753.290 166.539   2
  11   4 -14 3410.25 226.707   4
 -11   4  14 3151.83 292.505   2
  11   4 -14 3312.50 262.433   6
  11   4 -13 1766.00 170.790   4
  11   4 -13 1754.68 190.814   6
 -11   4  13 1431.44 193.625   2
  11   4 -12 2164.76 111.197   1
 -11   4  12 1516.20 129.550   6
  11   4 -12 2027.11 197.398   6
 -11   4  12 2003.59 219.280   2
  11   4 -11 214.846 54.4979   1
 -11   4  11 183.948 58.0216   6
  11   4 -11 116.253 71.7359   6
 -11   4  11 162.023 94.8667   2
 -11   4  10 826.475 52.7614   4
  11   4 -10 866.425 88.8873   1
 -11   4  10 830.653 81.2060   6
  11   4 -10 747.899 122.880   6
 -11   4   9 623.353 60.4668   4
 -11   4   9 478.263 57.3888   6
  11   4  -9 581.682 109.640   6
  11   4  -9 652.602 87.3186   1
 -11   4   8 1510.68 103.514   4
  11   4  -8 1601.00 132.658   1
 -11   4   8 1080.14 63.8743   6
  11   4  -8 1336.28 162.073   6
 -11   4   7 752.037 81.6908   4
  11   4  -7 925.544 111.066   1
 -11   4   6 305.910 69.1550   4
  11   4  -6 149.633 72.0824   1
  11   4  -5 194.768 88.1085   2
 -11   4   5 304.057 69.2043   4
  11   4  -5 183.161 68.9398   1
 -11   4   4 577.615 93.4387   4
  11   4  -4 805.305 129.152   2
  11   4  -4 740.726 113.324   1
 -11   4   3 1273.12 134.011   4
  11   4  -3 1330.12 165.631   2
  11   4  -3 1378.85 154.748   1
 -11   4   2 676.551 110.276   4
  11   4  -2 654.769 132.515   2
  11   4  -2 630.582 117.274   1
 -11   4   1 1014.26 134.123   4
  11   4  -1 929.139 140.861   1
  11   4  -1 897.593 146.669   2
 -11   4   0 265.293 91.7249   4
  11   4   0 405.224 111.108   1
  11   4   0 194.936 92.6916   2
 -11   4  -1 2202.12 203.413   4
  11   4   1 2235.98 219.078   1
  11   4   1 2240.93 224.115   2
  11   4   2 1754.90 207.892   1
 -11   4  -2 1727.55 193.378   4
  11   4   2 1708.76 208.010   2
 -11   4  -3 3100.27 261.142   4
  11   4   3 2936.12 267.415   1
  11   4   3 3010.36 263.674   2
  11   4   4 916.098 173.670   1
 -11   4  -4 624.821 133.680   4
  11   4   4 711.052 159.753   2
 -11   4  -5 1003.06 182.483   4
  11   4   5 973.319 175.199   2
  11   4   5 996.307 181.639   1
 -11   4  -6 81.1223 104.965   4
  11   4   6 566.637 157.873   2
  11   4   6 365.382 134.720   1
 -11   4  -7 1299.07 204.796   4
  11   4   7 1535.49 228.338   2
  11   4   7 1416.95 218.790   1
  11   5 -17 718.231 135.811   4
  11   5 -17 691.934 147.871   6
  11   5 -16 1520.18 178.192   4
  11   5 -16 1201.82 188.948   6
 -11   5  16 1533.82 235.689   2
  11   5 -15 612.064 125.200   4
  11   5 -15 591.837 146.774   6
 -11   5  15 746.100 181.115   2
  11   5 -14 611.130 122.048   4
  11   5 -14 677.406 138.370   6
 -11   5  14 516.839 145.462   2
  11   5 -13 342.396 114.200   4
  11   5 -13 368.977 114.474   6
 -11   5  13 270.723 124.465   2
  11   5 -12 988.787 152.687   6
 -11   5  12 745.493 151.866   2
  11   5 -11 58.9607 71.2364   6
 -11   5  11 269.100 116.862   2
 -11   5  10 2664.36 135.328   4
 -11   5  10 2352.63 223.921   2
  11   5 -10 2361.89 219.858   6
 -11   5   9 896.831 89.5197   4
  11   5  -9 989.531 148.183   6
  11   5  -9 905.155 103.117   1
 -11   5   8 722.087 85.8094   4
  11   5  -8 587.141 128.677   6
  11   5  -8 598.083 93.0565   1
  11   5  -7 627.558 124.127   2
 -11   5   7 775.540 95.0958   4
 -11   5   7 428.431 53.7860   6
  11   5  -7 667.461 104.953   1
  11   5  -6 557.877 103.597   1
  11   5  -6 767.933 134.297   2
 -11   5   6 704.152 106.754   4
 -11   5   6 509.788 51.0705   6
  11   5  -5 488.973 102.340   1
 -11   5   5 388.508 77.8801   4
  11   5  -5 490.342 109.778   2
 -11   5   5 409.184 46.0898   6
  11   5  -4 669.143 120.920   1
 -11   5   4 784.516 116.317   4
  11   5  -4 544.551 118.006   2
 -11   5   4 525.309 52.5522   6
  11   5  -3 586.287 122.857   1
 -11   5   3 653.510 112.727   4
  11   5  -3 637.356 128.087   2
 -11   5   3 511.164 55.3636   6
  11   5  -2 829.966 143.149   1
 -11   5   2 828.575 135.091   4
  11   5  -2 758.078 140.903   2
 -11   5   2 685.744 66.7665   6
 -11   5   1 2790.67 229.501   4
  11   5  -1 2583.44 235.249   1
  11   5  -1 2459.21 232.587   2
 -11   5   1 2535.33 135.598   6
 -11   5   0 159.006 97.6782   4
  11   5   0 355.265 123.071   2
  11   5   0 318.375 99.1527   1
 -11   5  -1 786.165 152.350   4
  11   5   1 937.229 160.407   2
  11   5   1 747.861 153.471   1
 -11   5  -2 379.395 126.435   4
  11   5   2 294.707 123.220   2
  11   5   2 164.671 128.617   1
 -11   5  -3 658.897 150.331   4
  11   5   3 971.602 179.354   2
  11   5   3 1119.48 189.357   1
 -11   5  -4 1026.09 187.789   4
  11   5   4 784.855 170.351   2
  11   5   4 848.046 184.175   1
 -11   5  -5 1113.74 198.729   4
  11   5   5 1415.88 212.836   2
  11   5   5 1493.32 227.794   1
 -11   5  -6 535.456 161.480   4
  11   5   6 993.302 209.190   2
  11   6 -17 638.284 147.487   4
  11   6 -16 72.5727 94.8981   4
  11   6 -15 166.244 98.5212   4
  11   6 -15 343.270 134.829   6
 -11   6  15 198.647 144.898   2
  11   6 -14 787.171 152.169   4
  11   6 -14 566.822 147.824   6
 -11   6  14 384.674 125.121   2
  11   6 -13 130.948 92.2793   4
  11   6 -13 299.100 124.034   6
 -11   6  13-51.6763 132.518   2
  11   6 -12 1020.39 175.235   6
 -11   6  12 1416.55 206.192   2
  11   6 -11-4.81530 76.2850   2
  11   6 -11-30.9407 86.2440   6
 -11   6  11 167.703 120.406   2
  11   6 -10 850.085 147.941   2
  11   6 -10 887.411 160.700   6
 -11   6  10 626.142 140.810   2
 -11   6   9 169.647 103.262   2
  11   6  -9 362.719 112.391   2
 -11   6   9 395.589 84.0344   4
  11   6  -9 481.899 131.237   6
  11   6  -8 922.601 147.731   2
 -11   6   8 952.969 114.210   4
  11   6  -8 749.109 147.527   6
 -11   6   7 814.167 114.576   4
  11   6  -7 705.731 132.261   2
 -11   6   6 344.613 87.3131   4
  11   6  -6 319.859 99.9542   2
 -11   6   5 270.624 78.2187   4
  11   6  -5 198.418 92.6766   2
 -11   6   4 886.832 130.403   4
  11   6  -4 829.426 148.944   2
 -11   6   3 898.408 137.198   4
  11   6  -3 1010.95 167.960   2
 -11   6   2 568.345 133.128   4
  11   6  -2 537.388 131.243   2
 -11   6   1 739.543 145.705   4
  11   6  -1 499.063 128.296   2
 -11   6   0 5.35558 100.498   4
  11   6   0-100.086 95.4205   2
 -11   6  -1 1112.71 182.378   4
  11   6   1 1128.53 189.735   2
 -11   6  -2 40.1185 117.136   4
  11   6   2 419.279 130.063   2
 -11   6  -3 620.171 153.673   4
  11   6   3 990.751 189.549   2
 -11   6  -4 197.572 111.641   4
  11   6   4 440.657 149.642   2
 -11   6  -5 69.4406 111.280   4
  11   7 -16 1736.65 229.010   4
  11   7 -15 296.074 134.236   4
  11   7 -14 581.911 164.124   4
 -11   7  14 549.489 166.039   2
  11   7 -13 63.0385 107.093   4
  11   7 -13 91.4292 106.475   6
 -11   7  13 33.1209 119.106   2
  11   7 -12 571.861 131.638   2
  11   7 -12 265.086 107.163   6
 -11   7  12 645.394 179.130   2
  11   7 -11 159.097 86.0700   2
  11   7 -11 249.369 102.044   6
 -11   7  11 487.994 153.687   2
  11   7 -10 1523.45 183.837   2
  11   7 -10 1592.42 218.306   6
 -11   7  10 1839.20 224.604   2
  11   7  -9 632.254 133.871   2
  11   7  -9 590.470 147.169   6
 -11   7   9 851.210 160.376   2
  11   7  -8 337.346 109.061   2
  11   7  -8 301.656 110.745   6
 -11   7   7 482.027 104.019   4
  11   7  -7 844.173 165.709   2
 -11   7   6 373.989 103.539   4
  11   7  -6 311.627 108.112   2
 -11   7   5 297.214 94.2222   4
  11   7  -5 130.656 92.5388   2
 -11   7   4 587.929 124.571   4
  11   7  -4 782.135 147.318   2
 -11   7   3 351.111 110.827   4
  11   7  -3 503.851 141.356   2
 -11   7   2 602.437 139.308   4
  11   7  -2 1021.90 184.596   2
 -11   7   1 1798.59 222.024   4
  11   7  -1 1717.76 222.185   2
 -11   7   0 417.161 154.116   4
  11   7   0 378.872 136.077   2
 -11   7  -1 705.147 174.170   4
  11   7   1 421.691 131.986   2
 -11   7  -2 130.940 107.597   4
 -11   7  -3 597.840 170.254   4
 -11   8  12 861.031 179.431   2
 -11   8  11 486.897 160.014   2
 -11   8  10 202.018 124.474   2
  11   8  -9 190.681 88.0433   2
 -11   8   9 26.9219 115.646   2
  11   8  -8 876.914 154.369   2
  11   8  -7 459.681 133.728   2
  11   8  -6 299.653 109.835   2
 -11   8   5 458.974 128.763   4
  11   8  -5 240.991 122.759   2
 -11   8   4 547.593 138.381   4
  11   8  -4 550.737 165.567   2
 -11   8   3 556.201 152.824   4
  11   8  -3 916.828 186.229   2
 -11   8   2 623.673 157.371   4
  11   8  -2 318.797 106.144   2
 -11   8   1 449.333 149.625   4
  11   8  -1 132.564 124.484   2
 -11   8   0 419.741 129.668   4
 -11   8  -1 984.805 195.741   4
  11   9  -6 739.878 173.181   2
  11   9  -5 243.274 132.676   2
  11   9  -4-67.1427 144.827   2
 -12  -8   7 349.040 134.744   7
 -12  -8   6 1101.02 190.275   7
 -12  -8   5 587.196 153.818   7
 -12  -8   5 592.154 182.784   5
 -12  -8   4 414.497 136.056   7
 -12  -8   4 1045.67 194.206   5
 -12  -8   3 639.010 169.980   7
 -12  -8   3 196.085 124.849   5
 -12  -8   2 316.914 143.295   7
 -12  -8   2 796.416 169.459   5
 -12  -8   1 1002.98 203.661   5
 -12  -8   0 1215.89 202.870   5
  12  -7 -15 169.073 123.477   3
  12  -7 -14 683.149 179.034   3
  12  -7 -13 197.915 107.346   3
  12  -7 -12 507.829 152.737   3
  12  -7 -11 651.798 172.800   3
 -12  -7  11 286.105 135.591   5
  12  -7 -10 2168.87 260.909   3
 -12  -7  10 1422.02 235.146   5
  12  -7  -9 1250.41 199.704   3
 -12  -7   9 1260.67 213.120   5
 -12  -7   8 2095.88 213.587   7
  12  -7  -8 2633.69 285.253   3
 -12  -7   8 2313.63 270.585   5
 -12  -7   7 324.512 110.468   7
  12  -7  -7 303.219 117.773   3
 -12  -7   7 84.8966 106.756   5
 -12  -7   6 1576.91 195.160   7
  12  -7  -6 1468.84 210.008   3
 -12  -7   6 1804.81 238.386   5
 -12  -7   5 294.041 113.755   7
  12  -7  -5 515.733 159.843   3
 -12  -7   5 202.066 111.915   5
 -12  -7   4 2182.05 235.944   7
  12  -7  -4 1850.27 237.762   3
 -12  -7   4 1804.37 239.752   5
 -12  -7   3 1047.55 179.683   7
  12  -7  -3 1586.79 225.903   3
 -12  -7   3 1548.79 247.913   5
 -12  -7   2 1369.75 205.960   7
  12  -7  -2 1967.90 250.039   3
 -12  -7   2 1447.62 222.115   5
 -12  -7   1 324.415 131.518   7
  12  -7  -1 721.840 168.033   3
 -12  -7   1 575.487 168.512   5
 -12  -7   0 291.338 129.228   7
  12  -7   0 206.491 130.035   3
 -12  -7   0 123.757 100.146   5
 -12  -7  -1 252.335 141.290   7
  12  -7   1 142.424 123.602   3
  12  -7   2 441.640 138.955   3
  12  -6 -17 704.698 147.925   3
  12  -6 -16 185.138 111.826   3
  12  -6 -15 403.506 157.560   3
 -12  -6  15 159.865 105.584   5
  12  -6 -14 746.774 189.702   3
 -12  -6  14 426.147 128.753   5
  12  -6 -13 924.898 188.565   3
 -12  -6  13 1234.82 213.330   5
  12  -6 -12 2579.70 264.197   3
 -12  -6  12 2138.00 256.327   5
  12  -6 -11 1615.96 217.345   3
 -12  -6  11 1372.75 208.755   5
 -12  -6  10 909.686 130.330   7
  12  -6 -10 737.739 157.836   3
 -12  -6  10 688.108 148.882   5
 -12  -6   9 347.986 103.084   7
  12  -6  -9 308.295 122.364   3
 -12  -6   9 84.9244 108.153   5
 -12  -6   8 338.654 104.275   7
  12  -6  -8 209.753 112.810   3
 -12  -6   8 323.347 131.816   5
 -12  -6   7 1055.06 153.744   7
  12  -6  -7 1309.56 194.716   3
 -12  -6   7 868.659 172.596   5
 -12  -6   6 2853.08 237.120   7
  12  -6  -6 3190.31 286.195   3
 -12  -6   6 2866.11 275.748   5
 -12  -6   5 1175.24 163.557   7
  12  -6  -5 1240.51 200.897   3
 -12  -6   5 938.426 174.806   5
 -12  -6   4 235.724 99.5524   7
 -12  -6   4 64.7729 91.9763   5
 -12  -6   3 430.911 118.023   7
  12  -6  -3 209.085 103.396   3
 -12  -6   3 376.114 135.968   5
 -12  -6   2 605.818 141.288   7
  12  -6  -2 590.902 145.785   3
 -12  -6   2 512.178 131.419   5
 -12  -6   1 767.638 157.592   7
  12  -6  -1 1345.07 201.679   3
 -12  -6   1 1030.29 163.874   5
 -12  -6   0 2337.73 259.865   7
  12  -6   0 2629.65 270.821   3
 -12  -6   0 2068.42 219.144   5
 -12  -6  -1 1298.66 213.410   7
  12  -6   1 927.154 173.403   3
 -12  -6  -1 840.134 139.218   5
 -12  -6  -2 411.533 143.701   7
  12  -6   2 701.847 153.639   3
 -12  -6  -3 335.302 143.742   7
  12  -6   3 270.676 131.970   3
  12  -6   4 248.061 110.502   3
  12  -6   5 484.566 129.185   3
  12  -5 -17 190.312 113.858   3
 -12  -5  17 22.7315 109.196   5
  12  -5 -16 972.488 176.699   3
 -12  -5  16 1188.06 207.793   5
  12  -5 -15 1168.68 155.677   7
  12  -5 -15 858.991 165.964   3
 -12  -5  15 1100.18 195.552   5
  12  -5 -14 1349.08 189.778   3
 -12  -5  14 1740.52 227.726   5
  12  -5 -13 405.211 119.752   3
 -12  -5  13 362.007 122.623   5
  12  -5 -12 203.065 103.391   3
 -12  -5  12 95.7668 102.098   5
  12  -5 -11 995.897 158.024   3
 -12  -5  11 889.441 165.429   5
 -12  -5  10 4186.48 216.628   7
  12  -5 -10 3782.56 292.941   3
 -12  -5  10 3650.45 295.843   5
 -12  -5   9 3229.37 202.061   7
  12  -5  -9 3437.62 276.180   3
 -12  -5   9 3637.63 292.260   5
 -12  -5   8 4985.45 259.149   7
  12  -5  -8 5387.47 343.096   3
 -12  -5   8 4820.50 334.866   5
 -12  -5   7 4422.13 252.906   7
  12  -5  -7 4000.65 304.595   3
 -12  -5   7 4110.41 299.693   5
 -12  -5   6 3403.76 234.209   7
  12  -5  -6 3593.22 283.444   3
 -12  -5   6 3759.98 279.726   5
 -12  -5   5 4210.41 266.437   7
  12  -5  -5 3849.37 292.812   3
 -12  -5   5 4077.92 289.133   5
 -12  -5   4 4702.60 290.657   7
  12  -5  -4 4882.71 329.692   3
 -12  -5   4 4908.56 313.933   5
 -12  -5   3 2943.29 241.542   7
  12  -5  -3 3415.20 278.443   3
 -12  -5   3 3259.47 257.535   5
 -12  -5   2 3513.47 274.231   7
  12  -5  -2 4063.34 302.171   3
 -12  -5   2 3661.21 264.007   5
 -12  -5   1 853.585 154.487   7
  12  -5  -1 935.504 166.622   3
 -12  -5   1 770.443 135.855   5
 -12  -5   0 376.462 139.208   7
  12  -5   0 211.444 95.8357   3
 -12  -5   0 189.808 82.0069   5
 -12  -5  -1 139.844 105.866   7
  12  -5   1 274.840 116.524   3
 -12  -5  -1 448.136 103.769   5
 -12  -5  -2 1795.08 234.057   7
  12  -5   2 1986.01 222.451   3
 -12  -5  -2 1572.98 165.069   5
 -12  -5  -3 928.825 187.957   7
  12  -5   3 1157.26 183.552   3
 -12  -5  -4 1239.96 216.322   7
  12  -5   4 1056.09 164.107   3
  12  -5   5 339.272 126.415   3
 -12  -4  19 384.099 138.868   5
  12  -4 -18 592.990 134.989   3
 -12  -4  18 976.788 192.884   5
 -12  -4  17 926.480 183.295   5
  12  -4 -17 871.491 151.112   3
 -12  -4  16 909.876 164.551   5
  12  -4 -16 942.269 163.697   3
  12  -4 -15 861.908 124.859   7
 -12  -4  15 522.054 149.432   5
  12  -4 -15 667.962 134.968   3
  12  -4 -14 1229.71 150.323   7
 -12  -4  14 1092.70 182.291   5
  12  -4 -14 1243.65 172.121   3
  12  -4 -13 2267.31 220.424   3
 -12  -4  13 2419.67 241.585   5
  12  -4 -12 4991.96 321.193   3
 -12  -4  12 4644.97 326.199   5
 -12  -4  11 1998.71 115.926   7
  12  -4 -11 2049.21 207.410   3
 -12  -4  11 1902.38 218.976   5
 -12  -4  10 2476.39 142.332   7
  12  -4 -10 2402.60 223.420   3
 -12  -4  10 2470.99 238.195   5
 -12  -4   9 739.701 93.3589   7
 -12  -4   9 808.319 137.344   5
  12  -4  -9 710.869 137.718   3
 -12  -4   8 4274.04 211.983   7
  12  -4  -8 3568.63 265.867   3
 -12  -4   8 3934.60 284.069   5
 -12  -4   7 5523.68 256.558   7
  12  -4  -7 5427.83 324.606   3
 -12  -4   7 5374.90 319.632   5
 -12  -4   6 7466.05 308.865   7
  12  -4  -6 8019.64 393.281   3
 -12  -4   6 7647.62 379.724   5
 -12  -4   5 5598.24 279.657   7
  12  -4  -5 5944.97 337.760   3
 -12  -4   5 5560.20 313.856   5
 -12  -4   4 4134.70 253.382   7
  12  -4  -4 4176.40 289.015   3
 -12  -4   4 4011.37 264.339   5
 -12  -4   3 837.223 136.378   7
  12  -4  -3 1039.24 156.552   3
 -12  -4   3 898.677 131.064   5
  12  -4  -2 2548.39 179.254   2
 -12  -4   2 2500.47 225.383   7
  12  -4  -2 2782.64 241.207   3
 -12  -4   2 2833.45 220.698   5
  12  -4  -1 2191.44 166.802   2
 -12  -4   1 1511.72 187.262   7
  12  -4  -1 2522.51 232.416   3
 -12  -4   1 2184.71 189.509   5
 -12  -4   0 4747.88 313.615   7
  12  -4   0 5361.40 328.549   3
 -12  -4   0 5353.64 281.907   5
 -12  -4  -1 2018.41 222.257   7
  12  -4   1 2479.55 230.959   3
 -12  -4  -1 2383.52 188.226   5
 -12  -4  -2 1344.26 195.416   7
  12  -4   2 1122.85 159.976   3
 -12  -4  -2 1017.55 123.002   5
 -12  -4  -3 635.101 150.245   7
  12  -4   3 875.211 146.525   3
 -12  -4  -4 650.154 152.297   7
  12  -4   4 982.852 160.138   3
 -12  -4  -5 995.929 192.345   7
  12  -4   5 1213.63 179.036   3
 -12  -4  -6 618.864 169.606   7
  12  -4   6 752.925 166.811   1
  12  -4   7 665.983 156.194   1
  12  -4   8 330.827 126.823   1
 -12  -3  21 267.632 133.766   5
 -12  -3  20 738.430 177.233   5
 -12  -3  19 125.976 111.766   5
 -12  -3  18 3.14743 96.0460   5
  12  -3 -18 7.15150 66.4970   3
 -12  -3  17 767.424 163.744   5
  12  -3 -17 370.004 106.158   3
  12  -3 -16 2187.09 209.031   3
 -12  -3  16 2017.45 231.643   5
  12  -3 -15 4145.71 203.116   7
  12  -3 -15 4036.54 274.867   3
 -12  -3  15 4358.37 320.176   5
  12  -3 -14 6619.50 264.424   7
  12  -3 -14 6223.29 340.588   3
 -12  -3  14 6503.48 377.864   5
  12  -3 -13 3004.83 240.049   3
 -12  -3  13 2657.55 245.519   5
 -12  -3  12 384.431 118.590   5
  12  -3 -12 246.356 84.7008   3
 -12  -3  11 883.467 150.240   5
  12  -3 -11 676.445 127.723   3
 -12  -3  10 3585.28 139.350   7
  12  -3 -10 3613.33 256.383   3
 -12  -3  10 3620.51 265.127   5
 -12  -3   9 3053.05 147.398   7
  12  -3  -9 3567.01 251.345   3
 -12  -3   9 2880.36 237.580   5
 -12  -3   8 6010.74 226.351   7
  12  -3  -8 5984.19 329.059   3
 -12  -3   8 5934.14 326.176   5
 -12  -3   7 1150.20 111.939   7
 -12  -3   7 1150.95 165.551   5
  12  -3  -7 1279.40 165.031   3
 -12  -3   6 1384.06 135.829   7
 -12  -3   6 1209.45 159.029   5
  12  -3  -6 1279.34 162.201   3
 -12  -3   5 1404.13 143.939   7
 -12  -3   5 1190.99 143.839   5
  12  -3  -5 1486.89 169.677   3
  12  -3  -4 5918.61 248.724   4
 -12  -3   4 5960.98 285.555   7
  12  -3  -4 6647.68 337.658   3
 -12  -3   4 6158.95 306.712   5
 -12  -3   3 3338.11 230.497   7
  12  -3  -3 3036.81 200.192   4
  12  -3  -3 3410.93 246.625   3
 -12  -3   3 3616.79 235.975   5
 -12  -3   2 4198.92 261.633   7
  12  -3  -2 3942.42 223.711   2
  12  -3  -2 4243.66 275.045   3
 -12  -3   2 3826.29 237.171   5
 -12  -3   1 844.750 130.636   7
 -12  -3   1 870.997 123.373   5
  12  -3  -1 790.216 129.126   3
  12  -3  -1 782.487 112.820   2
 -12  -3   0 329.595 92.8668   7
 -12  -3   0 466.738 85.6767   5
  12  -3   0 296.447 97.5243   3
  12  -3   0 376.384 85.9087   2
  12  -3   1 2751.21 181.274   2
 -12  -3  -1 2905.62 250.732   7
  12  -3   1 2781.39 229.493   3
 -12  -3  -1 2563.24 180.035   5
  12  -3   2 7544.66 292.325   2
 -12  -3  -2 6452.44 379.635   7
  12  -3   2 6790.07 350.166   3
 -12  -3  -2 6747.60 271.125   5
  12  -3   3 4389.08 225.673   2
 -12  -3  -3 4112.93 315.573   7
  12  -3   3 3753.36 264.267   3
 -12  -3  -3 4020.62 198.785   5
 -12  -3  -4 2371.83 253.806   7
  12  -3   4 1910.18 197.334   3
 -12  -3  -5 421.949 141.804   7
  12  -3   5 364.412 118.526   1
  12  -3   5 483.375 113.864   3
 -12  -3  -6-10.3992 108.609   7
  12  -3   6 29.8958 110.553   1
  12  -3   7 448.695 123.251   1
  12  -3   8 604.004 149.568   1
  12  -3   9 497.030 146.582   1
 -12  -2  21 496.323 153.312   5
 -12  -2  20 50.1107 102.630   5
 -12  -2  19 162.824 123.617   5
  12  -2 -19 173.232 84.9392   3
 -12  -2  18 901.297 163.911   5
  12  -2 -18 1085.31 143.852   3
 -12  -2  17 575.083 142.834   5
  12  -2 -17 405.123 98.1693   3
 -12  -2  16 855.436 157.771   5
  12  -2 -16 799.528 142.125   3
 -12  -2  15 584.595 138.478   5
  12  -2 -15 571.455 117.779   3
  12  -2 -14 1332.44 158.798   3
  12  -2 -14 1326.01 93.9173   7
 -12  -2  14 1224.33 168.760   5
  12  -2 -13 3222.52 155.189   7
 -12  -2  13 3180.18 259.826   5
  12  -2 -13 3055.66 232.772   3
 -12  -2  12 4765.67 301.594   5
  12  -2 -12 4741.63 278.653   3
 -12  -2  11 1741.23 188.208   5
  12  -2 -11 1666.60 174.206   3
  12  -2 -10 1217.15 155.241   3
 -12  -2  10 1156.35 157.275   5
  12  -2  -9 387.841 102.986   3
 -12  -2   9 357.153 99.7455   5
 -12  -2   8 7235.52 345.048   5
  12  -2  -8 7365.01 340.442   3
 -12  -2   7 6517.58 233.798   7
 -12  -2   7 7393.67 343.125   5
  12  -2  -7 7507.74 341.962   3
  12  -2  -6 16220.6 328.599   4
 -12  -2   6 15848.8 389.343   7
 -12  -2   6 16348.2 489.280   5
  12  -2  -6 16751.7 504.723   3
  12  -2  -5 6743.99 237.128   4
 -12  -2   5 6809.13 271.411   7
 -12  -2   5 7043.85 320.493   5
  12  -2  -5 6362.56 319.882   3
  12  -2  -4 6610.88 250.332   4
 -12  -2   4 6152.72 278.839   7
 -12  -2   4 6502.25 300.398   5
  12  -2  -4 6580.01 321.325   3
  12  -2  -3 527.650 96.2779   4
 -12  -2   3 640.239 114.354   7
 -12  -2   3 554.610 111.904   5
  12  -2  -3 567.038 116.559   3
  12  -2  -2 868.470 118.995   4
 -12  -2   2 926.854 136.753   7
 -12  -2   2 930.518 120.762   5
  12  -2  -2 1111.63 145.937   3
 -12  -2   1 1347.38 156.865   7
  12  -2  -1 1304.04 75.7745   6
 -12  -2   1 1677.70 151.566   5
  12  -2  -1 1710.95 157.897   5
  12  -2  -1 1946.45 183.325   3
 -12  -2   0 5041.35 302.053   7
  12  -2   0 3895.88 153.100   6
 -12  -2   0 4918.13 238.487   5
  12  -2   0 4285.47 234.235   5
  12  -2   0 4814.46 279.141   3
  12  -2   1 3194.08 202.766   2
 -12  -2  -1 3027.13 244.720   7
  12  -2   1 2645.17 144.476   6
 -12  -2  -1 2938.83 181.963   5
  12  -2   1 3121.20 228.249   3
  12  -2   1 2837.52 185.951   5
  12  -2   2 1142.40 130.655   2
 -12  -2  -2 961.189 152.597   7
 -12  -2  -2 1118.54 112.399   5
  12  -2   2 979.098 114.116   5
  12  -2   2 1217.13 147.135   3
 -12  -2  -3 823.372 159.410   7
  12  -2   3 764.267 116.507   2
 -12  -2  -3 463.132 72.7910   5
  12  -2   3 440.570 103.459   3
 -12  -2  -4 982.224 178.640   7
  12  -2   4 1158.35 162.142   1
  12  -2   4 1105.13 133.125   2
  12  -2   4 823.637 125.865   3
 -12  -2  -5 659.103 157.977   7
  12  -2   5 594.094 111.808   2
  12  -2   5 536.278 137.259   1
  12  -2   5 457.118 96.7648   3
 -12  -2  -6 1206.99 203.370   7
  12  -2   6 1521.86 222.074   1
  12  -2   7 278.901 134.985   1
  12  -2   8 181.825 114.634   1
  12  -2   9 347.584 126.136   1
 -12  -1  21 82.3746 110.911   5
 -12  -1  20 322.993 125.302   5
  12  -1 -19 558.416 118.053   3
 -12  -1  19 507.612 139.555   5
  12  -1 -18 51.2362 61.4561   3
 -12  -1  18 392.434 127.404   5
  12  -1 -17 283.870 90.8921   3
 -12  -1  17 401.634 123.236   5
 -12  -1  16 1533.90 195.447   5
  12  -1 -16 1809.54 185.398   3
  12  -1 -15 720.402 120.736   3
 -12  -1  15 554.691 127.587   5
 -12  -1  14 2541.65 234.289   5
  12  -1 -14 3147.32 230.214   3
  12  -1 -13 663.439 116.873   3
 -12  -1  13 551.511 119.190   5
  12  -1 -12 1042.59 139.445   3
  12  -1 -12 824.663 50.8843   7
 -12  -1  12 1047.73 153.620   5
  12  -1 -11 1439.25 163.436   3
  12  -1 -11 1467.66 83.4103   7
 -12  -1  11 1485.35 171.656   5
  12  -1 -10 6118.27 185.597   7
 -12  -1  10 6209.25 323.661   5
  12  -1 -10 5633.41 297.620   3
  12  -1  -9 5280.45 189.756   7
 -12  -1   9 5253.22 298.268   5
  12  -1  -9 5292.63 284.602   3
  12  -1  -8 8846.14 263.224   7
 -12  -1   8 8300.08 357.170   5
  12  -1  -8 8660.65 358.304   3
  12  -1  -7 1260.93 148.153   3
  12  -1  -7 1220.81 82.7370   4
  12  -1  -7 1191.71 105.980   7
 -12  -1   7 1100.74 142.056   5
  12  -1  -6 1130.03 137.269   3
  12  -1  -6 1153.73 89.8569   4
  12  -1  -6 1424.28 122.805   7
 -12  -1   6 1130.50 138.258   5
  12  -1  -5 1514.16 155.136   3
  12  -1  -5 1275.33 104.223   4
  12  -1  -5 1556.29 136.662   7
 -12  -1   5 1235.53 142.364   5
  12  -1  -4 7881.88 265.214   4
  12  -1  -4 7988.29 311.962   7
 -12  -1   4 8465.53 333.832   5
  12  -1  -4 7915.88 335.782   3
  12  -1  -3 5315.19 235.020   4
 -12  -1   3 5045.15 255.277   5
  12  -1  -3 4551.04 240.765   5
  12  -1  -3 5242.30 276.562   3
  12  -1  -2 5437.72 254.870   4
  12  -1  -2 4820.58 135.104   6
 -12  -1   2 5139.62 254.247   5
  12  -1  -2 4987.65 243.773   5
  12  -1  -2 5638.39 287.036   3
  12  -1  -1 1420.77 151.427   3
  12  -1  -1 1027.60 79.9596   6
 -12  -1   1 1290.03 132.897   5
  12  -1  -1 1103.14 122.089   5
  12  -1   0 921.911 86.7896   6
 -12  -1   0 812.959 105.874   5
  12  -1   0 947.206 109.407   5
  12  -1   0 961.140 132.409   3
  12  -1   1 797.649 119.075   2
  12  -1   1 598.412 79.1664   6
 -12  -1  -1 730.109 94.2705   5
  12  -1   1 776.589 98.6400   5
  12  -1   1 711.026 111.262   3
  12  -1   2 3007.44 214.756   2
  12  -1   2 2714.94 170.035   6
 -12  -1  -2 3292.63 178.670   5
  12  -1   2 3154.54 218.768   3
  12  -1   2 3027.65 172.791   5
  12  -1   3 684.437 114.496   2
  12  -1   3 1027.66 155.051   1
  12  -1   3 864.162 123.038   3
  12  -1   4 1564.86 161.800   2
  12  -1   4 1463.69 181.674   1
  12  -1   4 1353.67 142.771   3
  12  -1   5 270.906 103.904   2
  12  -1   5 339.935 83.1056   3
  12  -1   5 399.756 111.773   1
  12  -1   6 76.5182 88.9845   1
  12  -1   6 166.943 90.4348   2
  12  -1   7 803.502 154.173   1
  12  -1   7 895.553 145.944   2
  12  -1   8 735.097 159.316   1
  12  -1   9 140.434 94.5011   1
 -12   0  21 258.387 118.743   5
 -12   0  20 485.890 135.374   5
  12   0 -19 854.560 139.154   3
 -12   0  19 489.065 136.225   5
  12   0 -18 1224.09 158.522   3
 -12   0  18 1034.81 176.707   5
  12   0 -17 1314.32 159.810   3
 -12   0  17 1516.93 193.248   5
  12   0 -16 1380.69 165.049   3
 -12   0  16 1414.26 179.222   5
  12   0 -15 64.1086 68.4884   3
 -12   0  15 11.1332 76.5351   5
 -12   0  14 3121.47 256.934   5
  12   0 -14 3512.54 243.879   3
  12   0 -13 1422.36 155.650   3
 -12   0  13 1314.82 136.143   6
 -12   0  13 1643.17 187.123   5
  12   0 -12 3291.86 178.465   6
 -12   0  12 3403.63 253.486   5
  12   0 -12 3691.97 242.531   3
  12   0 -11 2222.54 138.761   6
 -12   0  11 1904.85 196.592   5
  12   0 -11 2100.82 191.150   3
  12   0 -10 6294.51 151.528   7
  12   0 -10 6714.81 214.187   6
 -12   0  10 6411.92 328.673   5
  12   0 -10 6594.26 314.225   3
  12   0  -9 2258.93 86.1589   4
  12   0  -9 2456.36 114.058   7
  12   0  -9 2426.87 120.334   6
 -12   0   9 2576.71 212.379   5
  12   0  -9 2516.36 196.619   3
  12   0  -8 300.038 88.1854   3
  12   0  -8 390.301 50.1607   4
  12   0  -8 311.084 56.4411   7
  12   0  -8 372.362 49.8454   6
 -12   0   8 333.682 92.7136   5
  12   0  -7 53.5266 62.9799   3
  12   0  -7 34.5073 37.5124   4
  12   0  -7 75.9159 51.5285   7
  12   0  -7 60.9750 31.5561   6
 -12   0   7-27.4186 70.2735   5
  12   0  -6 511.056 101.371   3
  12   0  -6 659.173 76.1127   4
  12   0  -6 472.771 77.9488   7
  12   0  -6 438.154 47.7951   6
 -12   0   6 678.286 114.979   5
  12   0  -5 72.8394 72.9274   3
  12   0  -5 11.2684 48.4116   4
  12   0  -5 2.57137 58.6894   7
  12   0  -5 37.0970 27.7881   6
 -12   0   5 1.30997 70.0861   5
  12   0  -4 436.301 95.7695   3
  12   0  -4 489.324 85.6284   4
  12   0  -4 283.189 76.9807   7
 -12   0   4 389.020 95.7006   5
  12   0  -4 198.043 80.5066   5
  12   0  -3 2407.16 165.632   4
  12   0  -3 2398.91 179.437   7
 -12   0   3 2220.40 175.177   5
  12   0  -3 2272.75 172.613   5
  12   0  -3 2362.84 186.545   3
  12   0  -2 7041.30 292.993   4
 -12   0   2 6678.75 288.996   5
  12   0  -2 6440.98 273.995   5
  12   0  -2 6574.18 299.082   3
 -12   0   1 2234.99 170.110   5
  12   0  -1 2027.27 150.601   5
  12   0  -1 1914.64 170.102   3
  12   0   0 3660.30 236.108   2
 -12   0   0 3542.61 201.664   5
  12   0   0 3318.62 189.814   5
  12   0   0 3212.04 214.054   3
  12   0   1 1564.14 158.386   2
  12   0   1 1465.01 170.603   1
  12   0   1 1422.16 127.587   6
  12   0   1 1558.22 127.944   5
  12   0   1 1639.60 155.525   3
  12   0   2 3049.13 225.312   2
  12   0   2 2714.85 180.409   6
  12   0   2 3397.50 254.951   1
  12   0   2 3285.34 211.708   3
  12   0   2 3116.85 165.825   5
  12   0   3 222.434 91.2757   1
  12   0   3 239.893 87.6330   2
  12   0   3 48.7773 53.2379   3
  12   0   4 1659.31 176.813   2
  12   0   4 1432.36 181.922   1
  12   0   4 1386.85 143.086   3
  12   0   5 1752.34 202.844   1
  12   0   5 1710.46 183.485   2
  12   0   5 1244.79 133.529   3
  12   0   6 1559.09 200.162   1
  12   0   6 1504.23 176.921   2
  12   0   7 878.231 153.353   2
  12   0   7 907.598 171.290   1
  12   0   8 781.366 162.065   1
  12   0   8 1074.28 163.972   2
  12   0   9 427.470 143.489   1
 -12   1  20 697.929 144.788   5
  12   1 -19 743.530 129.754   3
 -12   1  19 537.347 129.838   5
  12   1 -18 100.951 70.4633   3
 -12   1  18 176.631 103.526   5
  12   1 -17 306.157 102.261   3
 -12   1  17 485.924 139.179   5
  12   1 -16 1648.89 182.968   3
  12   1 -16 1635.93 180.357   6
 -12   1  16 1347.81 188.582   5
  12   1 -15 680.940 124.480   3
  12   1 -15 717.113 115.781   6
 -12   1  15 805.479 156.024   5
  12   1 -14 3118.03 119.400   4
  12   1 -14 3075.58 210.824   6
 -12   1  14 2476.47 188.767   6
 -12   1  14 2794.40 244.798   5
  12   1 -13 621.476 57.5347   4
  12   1 -13 699.145 101.053   6
 -12   1  13 477.230 81.7313   6
 -12   1  13 901.536 152.017   5
  12   1 -12 823.942 67.7292   4
  12   1 -12 963.041 113.541   6
 -12   1  12 699.776 90.2419   6
 -12   1  12 699.182 134.698   5
  12   1 -11 1170.08 116.868   6
 -12   1  11 1153.30 159.247   5
  12   1 -10 5507.97 226.832   6
 -12   1  10 5439.84 311.873   5
  12   1  -9 5050.66 178.694   4
  12   1  -9 4639.47 155.526   7
  12   1  -9 5332.63 210.349   6
 -12   1   9 4898.27 286.643   5
  12   1  -8 8078.85 237.338   4
  12   1  -8 7796.91 228.058   7
  12   1  -8 8382.19 247.503   6
 -12   1   8 7893.00 357.247   5
  12   1  -7 1404.03 110.285   4
  12   1  -7 1366.32 112.215   7
  12   1  -7 1301.80 104.802   6
 -12   1   7 1673.92 170.403   5
  12   1  -6 1245.64 114.595   4
  12   1  -6 1345.98 119.708   7
  12   1  -6 1077.04 96.7413   6
 -12   1   6 1052.23 136.477   5
  12   1  -5 1500.25 125.665   4
  12   1  -5 1519.54 131.897   7
 -12   1   5 1511.41 162.864   5
  12   1  -4 8388.76 297.754   4
  12   1  -4 8091.92 333.960   3
  12   1  -4 8399.35 311.756   7
 -12   1   4 8855.21 353.884   5
  12   1  -4 8205.68 324.751   5
  12   1  -3 5157.78 247.653   4
  12   1  -3 5179.09 256.535   7
 -12   1   3 5914.60 286.635   5
  12   1  -3 5345.69 256.785   5
  12   1  -3 5023.36 270.340   3
 -12   1   2 5994.32 276.000   4
  12   1  -2 6076.87 265.339   5
  12   1  -2 6070.59 288.648   3
  12   1  -1 1328.21 159.688   1
  12   1  -1 1260.30 140.447   3
 -12   1   1 1379.12 147.656   4
  12   1  -1 1194.96 149.440   2
  12   1  -1 1348.54 129.873   5
  12   1   0 976.538 125.059   3
 -12   1   0 709.870 111.904   4
  12   1   0 977.675 139.781   2
  12   1   0 862.271 135.948   1
  12   1   0 927.186 108.164   5
  12   1   1 622.404 100.559   3
  12   1   1 631.503 129.314   1
 -12   1  -1 300.975 93.7520   4
  12   1   1 547.623 116.964   2
  12   1   1 387.168 68.8286   5
 -12   1  -2 2720.06 230.043   4
  12   1   2 3190.78 243.633   2
  12   1   2 3104.72 250.394   1
  12   1   2 2880.51 197.294   3
  12   1   2 2352.70 139.256   5
  12   1   3 688.035 103.698   3
 -12   1  -3 622.984 134.498   4
  12   1   3 573.125 132.097   1
  12   1   3 681.804 124.630   2
  12   1   4 1963.17 215.085   1
 -12   1  -4 1356.43 183.865   4
  12   1   4 1728.96 195.209   2
  12   1   4 1599.20 149.984   3
 -12   1  -5 424.903 120.146   4
  12   1   5 653.314 131.236   2
  12   1   5 503.981 130.523   1
 -12   1  -6 174.681 92.2132   4
  12   1   6 106.035 89.9522   2
  12   1   6 233.042 105.635   1
 -12   1  -7 533.680 152.186   4
  12   1   7 722.695 161.282   1
  12   1   7 825.494 160.286   2
 -12   1  -8 613.772 163.343   4
  12   1   8 717.372 177.850   1
  12   1   8 730.389 155.561   2
  12   1   9 191.776 114.111   2
  12   1  10 531.736 166.465   2
  12   2 -19 222.932 94.9128   3
  12   2 -18 1126.06 177.581   6
  12   2 -17 376.442 112.816   6
  12   2 -16 969.303 148.332   6
  12   2 -15 638.448 88.3092   4
  12   2 -15 759.061 128.559   6
 -12   2  15 869.166 159.046   5
  12   2 -14 1280.70 108.329   4
  12   2 -14 1239.87 147.094   6
 -12   2  14 1110.81 123.009   6
 -12   2  14 1311.89 176.506   5
  12   2 -13 3025.65 159.453   4
  12   2 -13 2949.51 210.551   6
 -12   2  13 2641.06 163.897   6
 -12   2  13 2814.41 245.935   5
  12   2 -12 4412.56 190.352   4
  12   2 -12 4581.99 245.634   6
 -12   2  12 4065.91 183.514   6
 -12   2  12 4617.93 305.258   5
  12   2 -11 1590.46 145.470   6
 -12   2  11 1450.68 98.5843   6
 -12   2  11 1494.68 174.618   5
  12   2 -10 886.299 111.293   6
 -12   2  10 879.360 145.980   5
  12   2  -9 491.489 84.5487   6
 -12   2   9 553.053 116.197   5
  12   2  -8 6362.97 253.260   6
  12   2  -7 6609.30 249.233   7
  12   2  -7 6704.26 253.101   6
 -12   2   6 15659.8 327.282   4
  12   2  -6 16534.5 408.673   7
  12   2  -5 6967.88 287.682   4
 -12   2   5 7248.06 242.409   4
  12   2  -5 7390.75 292.445   7
  12   2  -5 7052.16 306.615   1
  12   2  -4 7328.23 301.158   4
 -12   2   4 6712.16 257.428   4
  12   2  -4 6969.46 295.545   7
  12   2  -4 6329.62 300.281   1
 -12   2   3 539.746 90.0616   4
  12   2  -3 505.761 113.613   1
  12   2  -3 539.596 111.179   5
 -12   2   2 974.880 122.680   4
  12   2  -2 1172.86 146.527   1
  12   2  -2 1280.75 156.597   2
  12   2  -2 967.744 119.732   5
 -12   2   1 1569.15 159.052   4
  12   2  -1 2005.04 192.066   2
  12   2  -1 1911.58 187.496   1
  12   2  -1 1942.09 152.242   5
 -12   2   0 4585.55 266.574   4
  12   2   0 4109.90 242.664   3
  12   2   0 4391.01 276.602   2
  12   2   0 5100.45 301.406   1
  12   2   0 4241.87 214.578   5
 -12   2  -1 2712.98 222.973   4
  12   2   1 3543.68 257.934   2
  12   2   1 3344.37 257.209   1
  12   2   1 3073.49 176.592   5
  12   2   1 2925.33 203.876   3
  12   2   2 1254.89 170.132   1
  12   2   2 1205.23 136.177   3
 -12   2  -2 1130.11 154.691   4
  12   2   2 1692.11 190.974   2
  12   2   3 511.575 89.9272   3
 -12   2  -3 571.337 129.133   4
  12   2   3 714.465 145.760   2
  12   2   3 585.253 130.897   1
  12   2   4 586.783 93.9625   3
 -12   2  -4 1048.37 172.118   4
  12   2   4 911.438 151.482   2
  12   2   4 831.743 155.051   1
 -12   2  -5 697.401 161.276   4
  12   2   5 542.157 154.570   1
  12   2   5 474.962 136.357   2
 -12   2  -6 1559.04 224.737   4
  12   2   6 1207.20 191.645   1
  12   2   6 1341.80 193.431   2
 -12   2  -7 333.077 134.112   4
  12   2   7 319.379 127.333   1
  12   2   7 400.758 142.557   2
  12   2   8 365.176 144.056   2
  12   2   9 861.713 177.085   2
  12   3 -20 510.189 139.416   6
  12   3 -19 168.509 104.003   6
 -12   3  19 450.501 160.192   2
  12   3 -18 134.189 96.1911   6
 -12   3  18 90.9208 120.633   2
  12   3 -17 724.447 144.450   6
 -12   3  17 549.702 148.962   2
 -12   3  16 2122.18 247.361   2
  12   3 -16 2632.39 180.256   4
  12   3 -16 2207.02 219.235   6
 -12   3  15 4287.61 330.052   2
  12   3 -15 4090.43 224.207   4
  12   3 -15 4109.72 276.996   6
  12   3 -14 6529.55 272.020   4
  12   3 -14 6599.53 339.130   6
  12   3 -13 2736.21 183.896   4
  12   3 -13 2728.27 217.974   6
 -12   3  13 2369.40 158.164   6
  12   3 -13 2686.43 141.061   1
  12   3 -12 422.984 68.1966   1
 -12   3  12 149.762 42.5385   6
  12   3 -12 319.418 93.7087   6
  12   3 -11 847.510 96.3502   1
 -12   3  11 713.745 70.7243   6
  12   3 -11 747.742 116.639   6
  12   3 -10 3996.96 237.000   6
  12   3 -10 3897.46 196.667   1
  12   3  -9 3492.02 214.470   6
  12   3  -9 3458.96 193.733   1
 -12   3   8 5775.15 156.748   4
  12   3  -8 6339.50 282.256   6
  12   3  -8 6210.38 263.425   1
 -12   3   7 1379.71 95.8395   4
  12   3  -7 1353.48 135.209   1
 -12   3   6 1206.82 102.770   4
  12   3  -6 1272.19 139.729   1
 -12   3   5 1087.33 107.261   4
  12   3  -5 1042.23 141.975   7
  12   3  -5 1070.08 138.557   1
 -12   3   4 5698.53 247.141   4
  12   3  -4 6096.49 297.366   1
 -12   3   3 2980.40 193.808   4
  12   3  -3 2953.13 231.664   2
  12   3  -3 3153.73 221.488   1
 -12   3   2 3436.13 221.489   4
  12   3  -2 3405.81 249.324   2
  12   3  -2 3424.92 245.159   1
  12   3  -1 730.812 110.822   5
 -12   3   1 725.370 124.276   4
  12   3  -1 692.047 131.494   2
  12   3  -1 576.147 122.273   1
  12   3   0 266.610 73.5762   5
 -12   3   0 457.511 104.586   4
  12   3   0 305.361 90.6582   2
  12   3   0 466.879 118.053   1
 -12   3  -1 2646.57 224.240   4
  12   3   1 2909.66 244.563   2
  12   3   1 2826.66 249.232   1
  12   3   1 2378.36 173.348   5
 -12   3  -2 6296.91 355.083   4
  12   3   2 6964.85 379.413   2
  12   3   2 7091.59 389.592   1
 -12   3  -3 4128.57 301.033   4
  12   3   3 4103.86 315.722   1
  12   3   3 4489.08 316.811   2
  12   3   3 3410.45 224.407   3
 -12   3  -4 2271.05 246.003   4
  12   3   4 2215.35 244.088   1
  12   3   4 2123.91 227.481   2
  12   3   4 2012.68 167.892   3
  12   3   5 674.620 153.160   1
 -12   3  -5 515.360 148.916   4
  12   3   5 677.287 149.610   2
  12   3   6-82.0692 116.786   1
 -12   3  -6 80.6614 99.5921   4
  12   3   6 29.5215 105.865   2
  12   3   7 447.297 149.011   1
 -12   3  -7 466.631 155.167   4
  12   3   7 646.461 164.562   2
  12   3   8 751.449 175.167   2
  12   4 -19 709.888 164.588   6
  12   4 -18 1216.81 183.460   6
  12   4 -17 1255.48 187.192   6
 -12   4  17 815.539 185.975   2
  12   4 -16 958.102 132.704   4
  12   4 -16 993.403 166.716   6
 -12   4  16 587.779 153.317   2
  12   4 -15 747.408 125.029   4
  12   4 -15 792.156 145.991   6
 -12   4  15 888.282 173.625   2
  12   4 -14 1188.06 150.071   4
  12   4 -14 1377.12 181.794   6
 -12   4  14 1264.03 197.686   2
  12   4 -13 2389.07 192.548   4
 -12   4  13 2579.52 255.808   2
  12   4 -13 2423.33 222.664   6
  12   4 -12 5168.31 192.029   1
  12   4 -12 4656.58 290.380   6
  12   4 -11 2363.35 145.190   1
  12   4 -11 2155.47 197.281   6
 -12   4  10 2283.88 73.3547   4
  12   4 -10 2505.03 160.478   1
 -12   4  10 1785.92 93.7524   6
  12   4 -10 2455.53 203.113   6
 -12   4   9 827.779 65.3044   4
  12   4  -9 940.057 135.641   6
  12   4  -9 920.419 107.566   1
 -12   4   8 4454.93 169.369   4
  12   4  -8 4303.52 222.249   1
  12   4  -8 3760.04 250.866   6
 -12   4   7 5945.22 217.227   4
  12   4  -7 5158.04 258.844   1
 -12   4   6 7942.43 271.642   4
  12   4  -6 7613.62 316.350   1
 -12   4   5 6033.85 253.687   4
  12   4  -5 5385.90 312.838   2
  12   4  -5 5783.49 289.173   1
 -12   4   4 3840.42 219.316   4
  12   4  -4 4027.43 273.639   2
  12   4  -4 3959.10 246.384   1
 -12   4   3 821.477 118.911   4
  12   4  -3 780.184 137.481   2
  12   4  -3 794.711 130.140   1
 -12   4   2 2545.62 202.293   4
  12   4  -2 2746.24 238.628   2
  12   4  -2 2449.75 215.633   1
 -12   4   1 2110.83 193.672   4
  12   4  -1 2075.62 211.233   2
  12   4  -1 2233.13 221.768   1
 -12   4   0 5426.72 312.611   4
  12   4   0 5064.35 323.792   1
  12   4   0 5348.74 334.950   2
 -12   4  -1 2066.38 212.959   4
  12   4   1 2629.65 246.422   2
  12   4   1 2225.46 233.525   1
  12   4   2 1490.86 208.432   1
 -12   4  -2 1106.06 176.202   4
  12   4   2 1207.56 201.056   2
  12   4   3 941.485 179.492   1
 -12   4  -3 747.755 154.264   4
  12   4   3 768.720 165.882   2
  12   4   4 1020.12 180.510   1
 -12   4  -4 781.016 168.020   4
  12   4   4 1102.49 184.425   2
 -12   4  -5 784.554 177.342   4
  12   4   5 1112.97 188.167   2
  12   4   5 1007.81 198.562   1
 -12   4  -6 466.409 152.270   4
  12   4   6 1096.61 198.653   2
  12   5 -17 303.843 113.478   6
  12   5 -16 1481.09 178.330   4
  12   5 -16 1007.46 170.863   6
 -12   5  16 1121.51 210.821   2
  12   5 -15 1198.64 159.867   4
  12   5 -15 1188.78 180.873   6
 -12   5  15 863.110 185.561   2
  12   5 -14 1541.36 177.290   4
  12   5 -14 1917.11 212.256   6
 -12   5  14 1653.65 225.612   2
  12   5 -13 492.719 122.845   6
 -12   5  13 493.011 139.112   2
 -12   5  12 115.113 101.035   2
  12   5 -12 69.7040 75.6200   6
  12   5 -11 823.228 141.822   6
  12   5 -10 4026.09 203.260   1
  12   5 -10 3679.60 267.644   6
 -12   5   9 3623.63 166.525   4
  12   5  -9 3403.46 200.118   1
  12   5  -9 3048.39 244.611   6
 -12   5   8 4972.64 213.242   4
  12   5  -8 5319.08 256.443   1
  12   5  -8 4960.12 304.601   2
  12   5  -8 4685.96 301.101   6
 -12   5   7 4659.95 221.083   4
  12   5  -7 4132.71 246.720   1
  12   5  -7 3938.62 271.210   2
 -12   5   6 3970.45 216.479   4
  12   5  -6 4063.93 244.833   1
  12   5  -6 4035.15 279.718   2
 -12   5   5 4657.90 247.094   4
  12   5  -5 4646.01 274.243   1
  12   5  -5 4608.13 298.347   2
 -12   5   4 5472.57 280.283   4
  12   5  -4 4866.57 294.821   1
  12   5  -4 5089.74 319.605   2
 -12   5   3 3801.47 251.932   4
  12   5  -3 3969.14 272.675   1
  12   5  -3 3932.51 293.622   2
 -12   5   2 4190.78 270.671   4
  12   5  -2 3611.44 270.158   1
  12   5  -2 3633.07 281.884   2
  12   5  -1 603.590 130.811   1
 -12   5   1 845.662 142.409   4
  12   5  -1 744.086 149.634   2
  12   5   0 267.122 102.579   1
 -12   5   0 224.001 105.411   4
  12   5   0 83.2779 93.5462   2
 -12   5  -1 299.495 113.353   4
  12   5   1 428.499 132.814   2
  12   5   1 522.398 144.349   1
 -12   5  -2 1534.65 209.196   4
  12   5   2 2077.02 240.539   2
  12   5   2 1793.09 218.356   1
 -12   5  -3 1216.51 195.453   4
  12   5   3 1444.11 211.587   2
  12   5   3 1283.45 217.692   1
 -12   5  -4 1080.08 191.632   4
  12   5   4 1402.08 216.170   2
  12   5   4 1028.95 201.253   1
 -12   5  -5 195.357 107.054   4
  12   6 -16 425.187 121.991   4
  12   6 -15 316.440 120.584   4
  12   6 -15 217.223 118.998   6
 -12   6  15 74.6986 126.363   2
  12   6 -14 724.344 149.333   4
  12   6 -14 516.372 125.981   6
 -12   6  14 786.266 165.515   2
  12   6 -13 1013.93 170.359   6
 -12   6  13 728.825 172.347   2
 -12   6  12 2546.45 268.111   2
  12   6 -12 2471.77 248.579   6
 -12   6  11 1143.77 181.816   2
  12   6 -11 956.669 147.570   2
  12   6 -11 1388.81 189.896   6
  12   6 -10 798.580 144.388   2
  12   6 -10 840.005 166.479   6
  12   6  -9 290.641 101.862   2
  12   6  -9 130.416 93.8364   6
 -12   6   8 330.966 72.3444   4
  12   6  -8 389.065 124.463   2
  12   6  -8 158.527 88.9252   6
 -12   6   7 1250.50 137.673   4
  12   6  -7 890.601 156.252   2
  12   6  -6 3077.32 234.734   1
 -12   6   6 3440.30 224.307   4
  12   6  -6 2869.00 249.536   2
 -12   6   5 775.717 116.308   4
  12   6  -5 711.956 139.762   2
  12   6  -5 866.547 141.423   1
 -12   6   4 183.597 80.7261   4
  12   6  -4 277.252 113.908   2
  12   6  -4 190.186 95.1639   1
 -12   6   3 218.141 96.1596   4
  12   6  -3 507.579 132.572   2
  12   6  -3 263.885 111.327   1
 -12   6   2 734.692 133.146   4
  12   6  -2 897.324 166.721   2
  12   6  -2 916.164 172.620   1
 -12   6   1 1039.95 169.283   4
  12   6  -1 1031.67 176.429   2
  12   6  -1 1307.73 186.098   1
 -12   6   0 1949.85 226.804   4
  12   6   0 2433.59 256.884   2
  12   6   0 2360.24 254.091   1
 -12   6  -1 622.789 177.259   4
  12   6   1 1079.11 200.757   2
  12   6   1 1063.13 194.553   1
 -12   6  -2 586.439 175.140   4
  12   6   2 536.697 149.698   2
 -12   6  -3 200.246 126.553   4
 -12   6  -4 182.027 126.623   4
  12   7 -15 177.099 116.931   4
  12   7 -14 849.253 186.999   4
 -12   7  13 168.781 133.497   2
  12   7 -12 226.187 90.2924   2
  12   7 -12 369.197 133.321   6
 -12   7  12 277.537 119.160   2
 -12   7  11 505.266 143.622   2
  12   7 -11 402.226 127.670   2
  12   7 -11 680.157 160.539   6
  12   7 -10 1498.24 186.781   2
  12   7 -10 1355.92 200.941   6
  12   7  -9 1313.57 181.573   2
  12   7  -9 1476.20 207.221   6
  12   7  -8 2442.06 236.225   2
  12   7  -8 2183.65 244.373   6
  12   7  -7 198.290 111.662   2
 -12   7   6 1785.20 182.352   4
  12   7  -6 1572.19 208.492   2
 -12   7   5 247.271 94.6775   4
  12   7  -5 108.284 111.880   2
 -12   7   4 2581.83 231.481   4
  12   7  -4 2445.97 262.192   2
 -12   7   3 1316.17 180.875   4
  12   7  -3 1457.59 221.119   2
 -12   7   2 1666.03 209.275   4
  12   7  -2 1636.44 211.871   2
 -12   7   1 346.318 146.287   4
  12   7  -1 819.189 176.807   2
 -12   7   0 295.589 137.842   4
  12   7   0 424.904 149.245   2
 -12   7  -1-73.0826 124.754   4
 -12   7  -2 510.231 153.392   4
 -12   8  12 615.442 167.082   2
 -12   8  11 900.127 188.328   2
  12   8  -9 129.407 96.8137   2
  12   8  -8 863.356 179.094   2
  12   8  -7 697.168 172.075   2
  12   8  -6 1107.98 190.699   2
  12   8  -5 869.753 179.620   2
 -12   8   4 934.590 162.737   4
  12   8  -4 1116.38 186.967   2
 -12   8   3 61.1776 125.549   4
  12   8  -3 141.427 131.610   2
 -12   8   2 869.982 158.195   4
 -12   8   1 739.840 168.752   4
 -12   8   0 941.314 186.663   4
 -13  -8   6 464.858 135.611   7
 -13  -8   5 293.230 121.462   7
 -13  -8   4 46.8867 141.110   7
 -13  -8   3 293.059 132.510   5
 -13  -8   2 388.166 138.405   5
  13  -7 -12 99.1074 103.346   3
  13  -7 -11 12.4872 109.189   3
  13  -7 -10-55.3827 115.499   3
 -13  -7  10-22.4176 103.022   5
  13  -7  -9 337.913 136.417   3
 -13  -7   9 119.296 127.650   5
 -13  -7   8 757.407 137.376   7
  13  -7  -8 933.362 181.388   3
 -13  -7   8 844.955 170.181   5
 -13  -7   7 401.108 122.251   7
  13  -7  -7 416.962 133.581   3
 -13  -7   7 758.393 181.136   5
 -13  -7   6 519.829 135.366   7
  13  -7  -6 749.466 177.290   3
 -13  -7   6 337.860 126.495   5
 -13  -7   5 553.534 134.186   7
  13  -7  -5 406.859 143.964   3
 -13  -7   5 450.951 151.680   5
 -13  -7   4-36.8997 123.402   7
  13  -7  -4 124.219 116.492   3
 -13  -7   4 96.4682 115.235   5
 -13  -7   3 141.925 99.8542   7
  13  -7  -3 231.584 123.938   3
 -13  -7   3 118.509 139.025   5
 -13  -7   2 289.951 123.921   7
  13  -7  -2 214.025 128.422   3
 -13  -7   2-65.6636 114.162   5
 -13  -7   1 114.987 103.195   7
 -13  -7   1 191.592 131.464   5
  13  -6 -17 897.314 177.496   3
  13  -6 -16 1066.84 182.328   3
  13  -6 -15 121.589 109.340   3
  13  -6 -14 19.3667 98.9295   3
 -13  -6  14-92.3700 137.089   5
  13  -6 -13 448.211 141.082   3
 -13  -6  13 249.383 139.302   5
  13  -6 -12 1064.32 186.675   3
 -13  -6  12 1164.45 200.337   5
  13  -6 -11 200.888 108.009   3
 -13  -6  11 206.985 115.160   5
  13  -6 -10 329.050 126.911   3
 -13  -6  10 343.046 137.431   5
 -13  -6   9 236.539 83.1874   7
  13  -6  -9 64.2306 94.5943   3
 -13  -6   9 152.422 110.716   5
 -13  -6   8 376.996 103.396   7
  13  -6  -8 448.832 126.013   3
 -13  -6   8 606.433 153.029   5
 -13  -6   7 320.624 107.716   7
  13  -6  -7 485.443 127.446   3
 -13  -6   7 271.817 108.939   5
 -13  -6   6 249.073 109.946   7
 -13  -6   6 315.595 155.329   5
 -13  -6   5 410.803 119.009   7
  13  -6  -5 299.220 123.154   3
 -13  -6   5 363.686 132.790   5
 -13  -6   4 141.586 96.8070   7
  13  -6  -4 295.466 127.819   3
 -13  -6   4 269.762 137.560   5
 -13  -6   3 221.694 105.448   7
  13  -6  -3 304.512 127.852   3
 -13  -6   3 228.170 117.403   5
 -13  -6   2 305.665 118.330   7
  13  -6  -2 157.039 106.124   3
 -13  -6   2 77.9813 104.262   5
 -13  -6   1 472.229 132.985   7
  13  -6  -1 1113.26 194.307   3
 -13  -6   1 982.224 161.112   5
 -13  -6   0 289.987 128.105   7
  13  -6   0 425.292 144.500   3
 -13  -6   0 305.853 101.274   5
 -13  -6  -1-41.7412 114.173   7
  13  -6   1-144.523 146.903   3
 -13  -6  -2 98.3148 116.499   7
  13  -6   2 121.652 124.291   3
  13  -6   3 1078.17 188.435   3
  13  -6   4 877.022 184.880   3
  13  -5 -18 669.763 142.241   3
  13  -5 -17 150.145 130.265   3
  13  -5 -16 477.650 158.003   3
 -13  -5  16 327.513 133.764   5
  13  -5 -15 1113.68 201.898   3
 -13  -5  15 588.500 163.602   5
  13  -5 -14 1489.35 230.105   3
 -13  -5  14 1783.41 246.424   5
  13  -5 -13 333.679 137.509   3
 -13  -5  13 260.203 122.490   5
  13  -5 -12 195.376 105.956   3
 -13  -5  12 571.536 155.421   5
  13  -5 -11 411.828 137.584   3
 -13  -5  11 547.211 148.224   5
 -13  -5  10 828.296 109.929   7
  13  -5 -10 744.720 155.341   3
 -13  -5  10 641.888 155.569   5
 -13  -5   9 412.688 89.9340   7
  13  -5  -9 466.272 129.370   3
 -13  -5   9 343.071 125.298   5
 -13  -5   8 1048.96 130.316   7
  13  -5  -8 1522.11 200.200   3
 -13  -5   8 1249.51 190.190   5
 -13  -5   7 572.861 108.893   7
  13  -5  -7 460.913 139.543   3
 -13  -5   7 541.281 132.435   5
 -13  -5   6 458.600 108.865   7
  13  -5  -6 567.772 137.342   3
 -13  -5   6 638.352 136.546   5
 -13  -5   5 1383.05 169.089   7
  13  -5  -5 1303.35 184.778   3
 -13  -5   5 1466.75 189.226   5
 -13  -5   4 500.614 125.546   7
  13  -5  -4 728.400 150.115   3
 -13  -5   4 498.186 134.006   5
 -13  -5   3 541.860 120.839   7
  13  -5  -3 721.287 154.473   3
 -13  -5   3 581.790 126.933   5
 -13  -5   2 160.680 99.2398   7
  13  -5  -2 272.115 99.3728   3
 -13  -5   2 250.202 103.216   5
 -13  -5   1 452.779 133.794   7
  13  -5  -1 505.394 128.762   3
 -13  -5   1 339.645 110.287   5
 -13  -5   0 212.085 114.126   7
  13  -5   0 350.587 116.744   3
 -13  -5   0 263.163 94.4453   5
 -13  -5  -1 1184.20 195.942   7
  13  -5   1 1869.87 230.169   3
 -13  -5  -1 1386.25 163.882   5
 -13  -5  -2 1015.73 203.247   7
  13  -5   2 582.354 144.132   3
 -13  -5  -3 792.777 179.410   7
  13  -5   3 597.195 152.536   3
  13  -5   4-27.8796 108.272   3
  13  -5   6 936.988 167.662   1
 -13  -4  18 688.082 175.681   5
  13  -4 -18 763.792 154.367   3
 -13  -4  17 1069.32 190.290   5
  13  -4 -17 1239.58 205.367   3
 -13  -4  16 1427.91 213.570   5
  13  -4 -16 1284.77 182.639   3
 -13  -4  15 707.551 165.875   5
  13  -4 -15 724.019 160.300   3
 -13  -4  14 116.522 101.570   5
  13  -4 -14 242.314 115.034   3
 -13  -4  13 444.811 124.154   5
  13  -4 -13 816.227 153.578   3
  13  -4 -12 2345.68 230.171   3
 -13  -4  12 2233.77 239.593   5
  13  -4 -11 1821.13 208.026   3
 -13  -4  11 1721.75 213.950   5
 -13  -4  10 3273.69 172.608   7
  13  -4 -10 3571.44 281.363   3
 -13  -4  10 3099.01 272.506   5
 -13  -4   9 593.748 91.6034   7
 -13  -4   9 591.261 140.427   5
  13  -4  -9 554.022 131.655   3
 -13  -4   8 385.973 86.2234   7
 -13  -4   8 517.604 120.788   5
  13  -4  -8 678.908 133.018   3
 -13  -4   7 441.970 87.5925   7
 -13  -4   7 708.235 136.627   5
  13  -4  -7 480.434 129.687   3
 -13  -4   6 717.080 119.043   7
 -13  -4   6 672.732 131.472   5
  13  -4  -6 845.997 154.784   3
 -13  -4   5 648.740 125.506   7
 -13  -4   5 503.866 116.926   5
  13  -4  -5 650.235 142.294   3
 -13  -4   4 552.575 119.553   7
  13  -4  -4 805.284 153.330   3
 -13  -4   4 550.397 117.101   5
 -13  -4   3 3312.53 248.784   7
  13  -4  -3 3546.64 279.633   3
 -13  -4   3 3181.51 246.394   5
 -13  -4   2 1469.07 184.148   7
  13  -4  -2 1892.42 209.874   3
 -13  -4   2 1345.19 161.635   5
 -13  -4   1 1974.64 212.574   7
  13  -4  -1 2690.57 243.414   3
 -13  -4   1 2277.04 198.974   5
 -13  -4   0 369.436 127.611   7
  13  -4   0 675.478 131.285   3
 -13  -4   0 588.736 111.438   5
 -13  -4  -1 232.823 88.9686   7
  13  -4   1 295.179 106.337   3
 -13  -4  -1 350.594 91.7904   5
 -13  -4  -2 1010.57 173.542   7
  13  -4   2 459.728 117.897   3
 -13  -4  -3 980.277 176.248   7
  13  -4   3 1280.48 178.103   3
 -13  -4  -4 1048.32 203.529   7
  13  -4   4 1394.94 189.224   3
  13  -4   5 1270.88 212.500   1
  13  -4   6 208.523 123.375   1
  13  -4   7 621.047 149.454   1
 -13  -3  20 1518.42 235.227   5
 -13  -3  19 102.376 111.497   5
  13  -3 -19 155.507 77.6488   3
 -13  -3  18 743.688 170.544   5
  13  -3 -18 767.702 140.572   3
 -13  -3  17 128.643 94.8624   5
  13  -3 -17 75.0684 83.2346   3
 -13  -3  16 1085.28 182.217   5
  13  -3 -16 654.475 136.828   3
 -13  -3  15 2457.44 254.198   5
  13  -3 -15 2738.27 244.000   3
 -13  -3  14 2638.50 257.276   5
  13  -3 -14 2681.42 238.220   3
 -13  -3  13 3017.51 266.038   5
  13  -3 -13 2585.93 234.730   3
 -13  -3  12 2543.95 238.651   5
  13  -3 -12 2657.90 232.914   3
 -13  -3  11 450.434 131.843   5
  13  -3 -11 419.105 115.518   3
 -13  -3  10 720.580 72.6814   7
 -13  -3  10 960.267 149.588   5
  13  -3 -10 1035.58 155.359   3
 -13  -3   9 1019.47 98.5543   7
 -13  -3   9 708.321 132.563   5
  13  -3  -9 1147.47 158.854   3
 -13  -3   8 1744.17 134.033   7
 -13  -3   8 1875.51 198.713   5
  13  -3  -8 2209.38 212.258   3
 -13  -3   7 516.350 88.5641   7
 -13  -3   7 452.107 117.794   5
  13  -3  -7 497.188 123.616   3
 -13  -3   6 592.297 100.214   7
 -13  -3   6 502.086 110.761   5
  13  -3  -6 368.496 110.081   3
 -13  -3   5 1820.09 162.792   7
  13  -3  -5 2312.06 210.535   3
 -13  -3   5 1912.53 187.967   5
 -13  -3   4 1081.42 137.387   7
  13  -3  -4 943.129 122.129   4
 -13  -3   4 1027.20 145.672   5
  13  -3  -4 1132.93 157.146   3
 -13  -3   3 906.144 135.739   7
 -13  -3   3 1122.28 144.905   5
  13  -3  -3 953.656 146.624   3
 -13  -3   2 435.571 110.339   7
 -13  -3   2 548.438 113.961   5
  13  -3  -2 614.661 133.824   3
 -13  -3   1 2701.95 235.423   7
  13  -3  -1 2796.68 235.891   3
 -13  -3   1 2546.18 199.322   5
 -13  -3   0 2592.22 235.712   7
  13  -3   0 2612.39 231.265   3
 -13  -3   0 2255.99 180.829   5
  13  -3   1 3021.91 200.088   2
 -13  -3  -1 2324.56 238.448   7
  13  -3   1 2578.13 226.389   3
 -13  -3  -1 2685.22 190.252   5
  13  -3   2 2579.68 190.386   2
 -13  -3  -2 2584.50 258.681   7
  13  -3   2 2523.74 229.637   3
 -13  -3  -2 2334.11 172.796   5
 -13  -3  -3 870.706 169.821   7
  13  -3   3 867.838 150.462   3
 -13  -3  -4-6.55501 107.230   7
  13  -3   4 111.523 80.6499   3
 -13  -3  -5 934.235 197.301   7
  13  -3   5 1235.90 200.442   1
  13  -3   6 368.973 137.906   1
  13  -3   7 1982.80 242.488   1
  13  -3   8 1342.21 212.510   1
 -13  -2  21 392.237 144.391   5
 -13  -2  20 273.835 125.660   5
 -13  -2  19 696.230 164.249   5
  13  -2 -19 540.931 131.673   3
 -13  -2  18 2770.50 275.284   5
  13  -2 -18 3081.28 251.180   3
 -13  -2  17 832.528 167.348   5
  13  -2 -17 719.311 139.694   3
 -13  -2  16 1931.89 231.747   5
  13  -2 -16 2081.52 210.502   3
 -13  -2  15 1414.59 197.778   5
  13  -2 -15 1355.72 175.960   3
  13  -2 -14 1994.20 112.360   7
 -13  -2  14 1795.84 211.268   5
  13  -2 -14 1912.49 197.363   3
  13  -2 -13 1136.58 149.279   3
 -13  -2  13 1148.16 174.254   5
 -13  -2  12 2360.62 228.423   5
  13  -2 -12 3000.89 235.819   3
  13  -2 -11 1558.76 175.413   3
 -13  -2  11 1424.28 174.288   5
  13  -2 -10 1088.96 147.487   3
 -13  -2  10 1043.95 153.589   5
  13  -2  -9 419.724 100.936   3
 -13  -2   9 382.058 105.097   5
  13  -2  -8 1214.51 154.768   3
 -13  -2   8 1099.43 155.148   5
  13  -2  -7 1450.59 166.221   3
  13  -2  -7 1586.80 103.402   4
  13  -2  -7 1923.89 162.542   7
 -13  -2   7 1782.94 183.200   5
  13  -2  -6 1696.86 123.649   4
  13  -2  -6 1927.70 162.567   7
 -13  -2   6 1508.84 138.948   7
  13  -2  -6 1723.74 181.304   3
 -13  -2   6 1707.16 177.468   5
  13  -2  -5 1221.74 116.155   4
 -13  -2   5 1366.03 145.668   7
 -13  -2   5 1270.09 156.095   5
  13  -2  -5 1361.04 161.721   3
  13  -2  -4 385.822 79.7094   4
 -13  -2   4 528.938 100.878   7
 -13  -2   4 348.657 87.9668   5
  13  -2  -4 526.628 109.374   3
  13  -2  -3 780.395 107.278   4
 -13  -2   3 952.205 132.800   7
 -13  -2   3 901.488 131.282   5
  13  -2  -3 1052.44 143.751   3
 -13  -2   2 1432.22 168.344   7
 -13  -2   2 1589.64 155.979   5
  13  -2  -2 1743.88 185.356   3
 -13  -2   1 3238.95 247.501   7
 -13  -2   1 3173.70 209.028   5
  13  -2  -1 3249.69 237.638   3
 -13  -2   0 1230.50 172.293   7
 -13  -2   0 953.437 119.048   5
  13  -2   0 1176.50 156.266   3
  13  -2   1 2297.15 187.138   2
 -13  -2  -1 2238.02 229.297   7
 -13  -2  -1 1901.10 154.188   5
  13  -2   1 1671.85 182.097   3
 -13  -2  -2 1241.61 183.517   7
  13  -2   2 1402.47 150.442   2
 -13  -2  -2 1487.18 127.573   5
  13  -2   2 1497.15 170.098   3
  13  -2   3 2365.53 192.485   2
 -13  -2  -3 2139.13 242.758   7
  13  -2   3 2031.80 198.986   3
 -13  -2  -4 822.053 169.598   7
  13  -2   4 947.673 142.047   2
  13  -2   4 952.594 165.084   1
  13  -2   4 747.211 131.145   3
  13  -2   5 2864.04 263.267   1
  13  -2   6 466.598 123.323   1
  13  -2   7 323.918 148.947   1
  13  -2   8 365.906 130.078   1
 -13  -1  22 119.292 115.051   5
 -13  -1  21 289.204 132.640   5
 -13  -1  20 992.730 183.718   5
  13  -1 -19 937.206 147.329   3
 -13  -1  19 1130.71 187.953   5
  13  -1 -18 630.834 122.478   3
 -13  -1  18 872.745 167.623   5
  13  -1 -17-9.01691 75.0895   3
 -13  -1  17 81.1265 94.1565   5
  13  -1 -16 1891.99 196.239   3
 -13  -1  16 1764.17 206.546   5
  13  -1 -15 1157.31 150.710   3
 -13  -1  15 1513.79 197.551   5
 -13  -1  14 2444.62 238.597   5
  13  -1 -14 2773.88 224.440   3
  13  -1 -13 371.214 103.158   3
 -13  -1  13 445.406 123.925   5
  13  -1 -12 676.964 128.391   3
  13  -1 -12 700.063 55.8721   7
 -13  -1  12 656.270 128.096   5
  13  -1 -11-22.2568 79.1928   3
  13  -1 -11 83.2852 37.3822   7
 -13  -1  11-55.8410 87.3282   5
  13  -1 -10 391.165 100.303   3
  13  -1 -10 296.594 59.1415   7
 -13  -1  10 535.958 125.391   5
  13  -1  -9 942.028 140.630   3
  13  -1  -9 391.077 34.5139   4
  13  -1  -9 988.311 95.2398   7
 -13  -1   9 964.902 152.132   5
  13  -1  -8 1553.13 168.146   3
  13  -1  -8 1327.45 80.1544   4
  13  -1  -8 1515.54 125.182   7
 -13  -1   8 1566.46 175.359   5
  13  -1  -7 995.868 139.067   3
  13  -1  -7 970.617 83.3873   4
  13  -1  -7 1118.74 115.299   7
 -13  -1   7 859.252 128.597   5
  13  -1  -6 788.003 128.961   3
  13  -1  -6 778.705 84.2802   4
  13  -1  -6 1061.83 121.378   7
 -13  -1   6 1102.24 148.532   5
  13  -1  -5 1240.65 148.861   3
  13  -1  -5 1207.05 111.833   4
  13  -1  -5 1264.71 135.817   7
 -13  -1   5 1361.80 155.817   5
  13  -1  -4 829.770 134.365   3
  13  -1  -4 785.864 107.731   4
 -13  -1   4 834.617 122.960   5
  13  -1  -3 287.577 107.029   3
  13  -1  -3 252.504 77.2263   4
 -13  -1   3 256.194 76.0338   5
  13  -1  -2 79.4095 74.7555   3
  13  -1  -2 44.9364 27.5971   6
 -13  -1   2-16.8390 61.9198   5
  13  -1  -1 418.786 55.3699   6
 -13  -1   1 595.788 98.8134   5
  13  -1  -1 502.457 83.3840   5
  13  -1  -1 457.120 113.196   3
  13  -1   0 243.551 84.2926   2
  13  -1   0 262.878 56.6148   6
 -13  -1   0 332.332 85.3979   5
  13  -1   0 362.189 82.4084   5
  13  -1   0 387.139 93.2505   3
  13  -1   1 2932.72 216.671   2
 -13  -1  -1 2728.50 178.021   5
  13  -1   1 3404.61 235.998   3
  13  -1   1 2869.28 183.439   5
  13  -1   2 1208.46 163.864   1
  13  -1   2 1362.06 152.480   2
  13  -1   2 1000.67 141.689   3
  13  -1   3 1810.54 206.668   1
  13  -1   3 1712.56 176.210   2
  13  -1   3 1727.81 169.305   3
  13  -1   4 183.515 89.5968   1
  13  -1   4 106.385 66.5339   3
  13  -1   5 637.077 136.260   2
  13  -1   5 899.995 165.842   1
  13  -1   6 1460.44 201.224   1
  13  -1   6 1720.52 192.327   2
  13  -1   7 1479.26 207.728   1
  13  -1   8 343.412 129.541   1
 -13   0  22 399.144 135.365   5
 -13   0  21 207.327 117.923   5
  13   0 -20 267.599 91.0926   3
 -13   0  20 416.195 130.250   5
  13   0 -19 441.949 115.703   3
 -13   0  19 551.259 138.168   5
  13   0 -18 1120.24 157.373   3
 -13   0  18 787.182 158.063   5
  13   0 -17 1566.01 174.141   3
 -13   0  17 984.016 168.180   5
 -13   0  16 1920.56 227.745   5
  13   0 -16 2314.68 213.217   3
  13   0 -15 199.816 71.5891   3
 -13   0  15 6.79764 81.2372   5
  13   0 -14 1087.32 149.478   3
 -13   0  14 685.258 141.355   5
  13   0 -13 501.611 108.850   3
 -13   0  13 403.695 120.793   5
  13   0 -12 1580.35 168.430   3
  13   0 -12 1567.70 121.329   6
 -13   0  12 1486.78 184.064   5
  13   0 -11 116.418 65.8863   3
  13   0 -11 244.801 55.0270   6
 -13   0  11 285.085 91.6329   5
  13   0 -10 256.956 95.1829   3
  13   0 -10 266.069 31.6529   4
  13   0 -10 282.839 47.6652   7
  13   0 -10 320.953 57.9940   6
 -13   0  10 422.026 116.772   5
  13   0  -9 336.924 97.3921   3
  13   0  -9 323.596 44.3464   4
  13   0  -9 328.695 58.5835   7
  13   0  -9 373.891 52.0851   6
 -13   0   9 374.047 103.931   5
  13   0  -8 635.395 117.742   3
  13   0  -8 595.661 65.6710   4
  13   0  -8 751.352 83.9361   7
  13   0  -8 750.254 62.6530   6
 -13   0   8 634.295 120.236   5
  13   0  -7 912.102 134.667   3
  13   0  -7 805.472 85.2196   4
  13   0  -7 785.942 93.6710   7
  13   0  -7 817.172 60.6636   6
 -13   0   7 898.372 144.554   5
  13   0  -6 841.392 126.247   3
  13   0  -6 767.102 89.1778   4
  13   0  -6 847.140 104.512   7
  13   0  -6 634.013 53.6926   6
 -13   0   6 740.123 117.924   5
  13   0  -5 734.093 117.706   3
  13   0  -5 776.742 98.2438   4
  13   0  -5 853.268 118.635   7
  13   0  -5 548.509 54.8164   6
 -13   0   5 978.006 137.050   5
  13   0  -4 384.024 94.0088   3
  13   0  -4 284.154 72.6189   4
 -13   0   4 88.6434 67.0827   5
  13   0  -3 332.168 85.3811   3
  13   0  -3 374.507 88.5168   4
 -13   0   3 244.387 84.3916   5
  13   0  -2 238.739 95.3436   3
 -13   0   2 226.910 78.9928   5
  13   0  -2 248.201 78.8642   5
 -13   0   1 1558.73 148.828   5
  13   0  -1 1708.32 167.582   3
  13   0  -1 1268.73 126.360   5
  13   0   0 344.173 87.2645   3
  13   0   0 376.020 107.021   1
  13   0   0 338.989 99.8109   2
  13   0   0 308.264 67.1704   6
  13   0   0 278.766 72.1091   5
  13   0   1 687.754 109.441   3
  13   0   1 1065.57 146.341   2
  13   0   1 710.938 98.0469   6
  13   0   1 815.734 145.137   1
  13   0   1 805.132 101.485   5
  13   0   2 290.043 88.0539   2
  13   0   2 223.530 104.315   1
  13   0   2 218.721 73.8547   3
  13   0   3 2310.92 208.811   2
  13   0   3 2560.55 234.646   1
  13   0   3 2085.21 180.031   3
  13   0   4 1464.55 177.396   2
  13   0   4 1571.80 193.370   1
  13   0   4 1397.01 153.591   3
  13   0   5 1251.74 184.487   1
  13   0   5 1137.93 165.627   2
  13   0   6 718.134 146.426   2
  13   0   6 585.188 143.071   1
  13   0   7 713.417 146.134   2
  13   0   7 617.592 151.571   1
 -13   1  21 49.2778 109.159   5
  13   1 -20 1255.20 183.324   3
 -13   1  20 970.771 176.775   5
  13   1 -19 1183.49 162.744   3
 -13   1  19 1268.82 206.431   5
  13   1 -18 694.722 130.480   3
 -13   1  18 731.975 153.271   5
  13   1 -17 165.996 99.5355   3
 -13   1  17 117.666 96.0405   5
  13   1 -16 1881.07 195.054   3
  13   1 -16 1911.66 187.795   6
 -13   1  16 1341.02 195.254   5
  13   1 -15 1091.30 153.618   3
  13   1 -15 1379.93 153.971   6
 -13   1  15 1230.99 180.717   5
  13   1 -14 3184.05 244.220   3
  13   1 -14 3058.88 206.759   6
 -13   1  14 2497.53 171.928   6
 -13   1  14 2483.25 238.980   5
  13   1 -13 215.301 78.4317   3
  13   1 -13 229.785 36.4951   4
  13   1 -13 361.418 85.6681   6
 -13   1  13 236.605 101.409   5
  13   1 -12 403.121 52.7263   4
  13   1 -12 697.791 98.1839   6
 -13   1  12 592.608 125.850   5
  13   1 -11 91.8050 38.4353   4
  13   1 -11-19.1913 47.0382   6
  13   1 -10 226.261 45.2017   4
  13   1 -10 298.163 69.8365   6
 -13   1  10 196.987 91.9750   5
  13   1  -9 843.294 84.1924   4
  13   1  -9 851.903 84.1756   7
  13   1  -9 935.157 93.8845   6
 -13   1   9 743.792 131.965   5
  13   1  -8 1361.67 110.329   4
  13   1  -8 1141.19 105.867   7
  13   1  -8 1348.00 107.382   6
 -13   1   8 1112.11 153.152   5
  13   1  -7 927.470 98.7216   4
  13   1  -7 907.454 103.123   7
  13   1  -7 904.750 87.5810   6
 -13   1   7 973.516 140.479   5
  13   1  -6 936.157 140.662   3
  13   1  -6 903.241 105.009   4
  13   1  -6 982.706 108.465   7
 -13   1   6 989.029 145.279   5
  13   1  -5 1356.88 129.497   4
  13   1  -5 1364.44 152.868   3
  13   1  -5 1755.91 156.534   7
 -13   1   5 1941.56 183.590   5
  13   1  -4 1001.17 139.739   3
  13   1  -4 936.890 117.261   4
 -13   1   4 1096.19 147.369   5
  13   1  -3 317.827 87.7763   3
  13   1  -2-43.2272 62.7733   3
  13   1  -2-89.4964 81.0820   1
  13   1  -2-4.63294 62.9954   5
  13   1  -1 612.376 111.118   3
 -13   1   1 684.013 117.694   4
  13   1  -1 721.228 132.238   2
  13   1  -1 693.702 127.269   1
  13   1  -1 548.085 91.2792   5
  13   1   0 424.874 102.350   3
 -13   1   0 192.688 79.8944   4
  13   1   0 314.354 103.169   2
  13   1   0 343.553 112.232   1
  13   1   0 190.019 63.7195   5
 -13   1  -1 2535.94 226.196   4
  13   1   1 3053.61 240.996   2
  13   1   1 3061.83 257.318   1
  13   1   1 2498.53 197.120   3
  13   1   2 1321.87 146.312   3
 -13   1  -2 1379.81 182.915   4
  13   1   2 1467.57 180.860   2
  13   1   2 1573.85 193.747   1
 -13   1  -3 1894.23 217.062   4
  13   1   3 2096.09 208.320   2
  13   1   3 2034.73 222.550   1
  13   1   3 1928.57 170.187   3
  13   1   4 90.7489 102.084   1
 -13   1  -4 18.3982 95.4292   4
  13   1   4-38.5137 96.9145   2
  13   1   4-71.0012 66.5115   3
 -13   1  -5 951.486 180.285   4
  13   1   5 905.480 161.499   2
  13   1   5 749.328 156.177   1
 -13   1  -6 1170.86 211.203   4
  13   1   6 1820.46 246.529   1
  13   1   6 1885.47 223.366   2
  13   1   7 1225.52 203.484   1
  13   1   7 1189.41 186.779   2
  13   1   8 464.345 155.357   2
  13   2 -20 196.935 101.158   3
  13   2 -19 732.832 157.866   3
  13   2 -19 731.959 150.505   6
  13   2 -18 3055.08 261.396   6
  13   2 -17 739.232 138.630   6
  13   2 -16 2239.69 213.025   6
  13   2 -15 1570.88 170.866   6
 -13   2  15 1228.93 183.115   5
  13   2 -14 1958.36 131.178   4
  13   2 -14 2197.07 186.285   6
 -13   2  14 1343.14 177.195   5
  13   2 -13 1099.86 101.420   4
  13   2 -13 969.655 126.747   6
 -13   2  13 821.324 94.3146   6
 -13   2  13 953.141 168.408   5
  13   2 -12 3321.77 212.190   6
 -13   2  12 2557.43 132.489   6
 -13   2  12 3167.01 256.491   5
  13   2 -11 1629.65 148.428   6
 -13   2  11 1600.81 191.705   5
  13   2 -10 925.409 111.855   6
 -13   2  10 947.349 151.330   5
  13   2  -9 524.768 91.1249   6
 -13   2   9 504.193 124.258   5
  13   2  -8 1164.74 120.612   7
  13   2  -8 1163.01 116.754   6
  13   2  -7 1586.89 141.063   4
  13   2  -7 1443.24 133.601   7
  13   2  -7 1642.36 132.884   6
  13   2  -6 1702.97 150.649   4
  13   2  -6 1395.82 144.664   7
 -13   2   5 1088.55 111.296   4
  13   2  -5 1361.69 145.766   7
  13   2  -5 1378.82 156.685   1
 -13   2   4 467.479 88.2987   4
  13   2  -4 339.542 92.0495   1
 -13   2   3 1071.90 122.092   4
  13   2  -3 1122.72 148.573   1
  13   2  -2 1541.25 173.964   1
  13   2  -2 1596.79 184.345   2
 -13   2   2 1332.91 143.663   4
 -13   2   1 2858.11 218.014   4
  13   2  -1 2975.83 220.029   3
  13   2  -1 3018.58 240.367   2
  13   2  -1 3063.61 240.729   1
  13   2  -1 2504.11 176.741   5
  13   2   0 915.973 128.728   3
 -13   2   0 872.645 139.036   4
  13   2   0 1105.68 156.538   2
  13   2   0 1203.74 164.279   1
  13   2   0 1172.70 126.201   5
 -13   2  -1 1876.48 199.265   4
  13   2   1 1985.40 204.947   2
  13   2   1 2159.44 217.023   1
  13   2   1 2121.01 185.659   3
  13   2   2 1224.01 140.973   3
 -13   2  -2 1357.99 179.127   4
  13   2   2 1431.32 190.762   2
  13   2   2 1683.12 200.883   1
 -13   2  -3 1983.68 228.419   4
  13   2   3 2384.35 236.436   2
  13   2   3 2124.33 237.231   1
  13   2   3 1559.19 157.981   3
 -13   2  -4 934.420 182.619   4
  13   2   4 1100.73 178.005   2
  13   2   4 934.536 172.093   1
 -13   2  -5 2795.93 288.583   4
  13   2   5 3053.13 292.165   1
  13   2   5 3249.98 283.948   2
 -13   2  -6 810.390 184.865   4
  13   2   6 520.629 148.464   1
  13   2   6 495.832 141.074   2
  13   2   7 214.266 113.291   2
  13   2   8 368.405 148.806   2
  13   3 -20 2158.65 250.626   6
  13   3 -19 527.167 136.215   6
  13   3 -18 1045.32 167.640   6
  13   3 -17 105.546 83.5707   6
  13   3 -16 927.367 154.968   6
  13   3 -15 2443.04 171.835   4
  13   3 -15 2669.11 229.054   6
  13   3 -14 2945.29 189.256   4
  13   3 -14 2678.93 222.619   6
  13   3 -13 2443.05 205.138   6
  13   3 -13 2639.51 156.013   1
  13   3 -12 2963.78 222.599   6
  13   3 -12 3000.14 176.235   1
  13   3 -11 362.198 80.1590   1
  13   3 -11 377.809 96.4162   6
 -13   3  11 219.870 35.7947   6
  13   3 -10 1121.90 116.864   1
  13   3 -10 1048.12 127.816   6
  13   3  -9 1140.72 133.342   6
  13   3  -9 1074.01 125.345   1
 -13   3   8 1829.32 99.0257   4
  13   3  -8 1908.37 162.717   6
  13   3  -8 2011.07 167.688   1
 -13   3   7 559.811 68.9995   4
  13   3  -7 584.683 101.753   1
 -13   3   6 478.152 74.2523   4
  13   3  -6 570.659 110.278   1
 -13   3   5 1944.68 147.641   4
  13   3  -5 1717.88 171.407   1
 -13   3   4 904.518 114.602   4
  13   3  -4 1042.63 155.309   2
  13   3  -4 1075.09 144.310   1
 -13   3   3 872.654 113.079   4
  13   3  -3 1082.46 154.810   2
  13   3  -3 938.886 143.309   1
  13   3  -2 412.605 112.452   1
 -13   3   2 407.665 105.001   4
  13   3  -2 520.986 127.692   2
 -13   3   1 2639.33 212.254   4
  13   3  -1 2819.35 244.550   2
  13   3  -1 2458.01 226.826   1
 -13   3   0 2576.49 225.808   4
  13   3   0 3215.41 260.504   2
  13   3   0 2935.24 253.923   1
 -13   3  -1 2198.60 218.067   4
  13   3   1 2613.47 241.642   2
  13   3   1 2885.17 263.594   1
 -13   3  -2 2821.07 257.035   4
  13   3   2 2560.50 255.993   2
  13   3   2 3035.70 271.577   1
  13   3   2 2216.07 192.123   3
  13   3   3 824.910 126.855   3
 -13   3  -3 1262.00 192.172   4
  13   3   3 1102.25 182.386   1
  13   3   3 1039.70 168.378   2
 -13   3  -4 97.3121 99.8137   4
  13   3   4 272.234 118.702   1
  13   3   4 279.933 124.168   2
  13   3   5 847.995 179.143   1
  13   3   5 935.443 173.007   2
 -13   3  -6 274.303 129.910   4
  13   3   6 310.408 114.157   2
  13   4 -19 296.676 110.392   6
  13   4 -18 940.944 167.799   6
 -13   4  17 1340.05 217.809   2
  13   4 -17 1178.38 181.551   6
  13   4 -16 1113.63 170.106   6
  13   4 -15 759.757 118.413   4
  13   4 -15 724.599 140.079   6
  13   4 -14 218.712 94.5582   4
  13   4 -14 502.925 123.183   6
  13   4 -13 701.863 132.547   6
  13   4 -12 2249.47 145.858   1
  13   4 -12 2039.82 194.917   6
  13   4 -11 1572.62 128.261   1
  13   4 -11 1497.03 168.655   6
  13   4 -10 3601.18 201.909   1
  13   4 -10 3263.15 236.540   6
 -13   4   9 561.958 58.4441   4
  13   4  -9 461.118 112.064   6
  13   4  -9 497.481 90.1735   1
 -13   4   8 575.080 68.1985   4
  13   4  -8 644.169 119.811   6
  13   4  -8 623.256 105.124   1
 -13   4   7 644.374 82.1742   4
  13   4  -7 589.436 112.613   1
 -13   4   6 574.898 84.2705   4
  13   4  -6 636.422 107.600   1
 -13   4   5 596.943 93.0708   4
  13   4  -5 484.885 123.647   2
  13   4  -5 727.936 127.921   1
 -13   4   4 590.897 102.302   4
  13   4  -4 328.350 104.312   2
  13   4  -4 598.970 120.432   1
 -13   4   3 3570.95 232.230   4
  13   4  -3 3589.21 276.761   2
  13   4  -3 3391.53 257.757   1
  13   4  -2 2004.82 226.686   2
 -13   4   2 1504.70 166.716   4
  13   4  -2 1695.16 195.312   1
 -13   4   1 2270.21 211.261   4
  13   4  -1 2187.21 231.732   2
  13   4  -1 2214.22 226.841   1
 -13   4   0 631.028 128.014   4
  13   4   0 632.838 150.455   1
  13   4   0 475.748 140.981   2
 -13   4  -1 261.062 99.4324   4
  13   4   1 170.767 108.196   1
  13   4   1 186.923 113.786   2
  13   4   2 962.645 173.596   1
 -13   4  -2 564.077 147.799   4
  13   4   2 848.903 169.140   2
  13   4   3 1376.91 203.222   1
 -13   4  -3 1403.16 217.922   4
  13   4   3 1132.52 184.465   2
  13   4   4 1746.99 243.534   1
 -13   4  -4 1049.87 194.387   4
  13   4   4 1520.83 219.514   2
 -13   4  -5 748.092 177.726   4
  13   4   5 911.358 202.169   2
  13   5 -17 200.659 124.886   6
  13   5 -16 509.089 132.667   6
 -13   5  16 480.907 149.500   2
 -13   5  15 1111.84 190.912   2
  13   5 -15 1299.74 167.215   4
  13   5 -15 817.872 156.619   6
  13   5 -14 1479.50 179.624   4
  13   5 -14 1708.29 212.181   6
  13   5 -13 383.833 108.217   6
  13   5 -12 525.993 125.280   6
  13   5 -11 250.804 91.6430   6
  13   5 -10 608.636 104.433   1
  13   5 -10 666.048 129.886   6
  13   5  -9 463.783 101.144   1
  13   5  -9 315.575 108.248   6
 -13   5   8 1532.66 123.781   4
  13   5  -8 1463.62 149.854   1
  13   5  -8 1342.00 180.140   2
  13   5  -7 707.515 122.177   1
 -13   5   7 726.152 100.485   4
  13   5  -7 525.236 133.725   2
  13   5  -6 533.325 114.853   1
 -13   5   6 478.944 89.6770   4
  13   5  -6 656.136 138.331   2
  13   5  -5 1173.37 162.043   1
 -13   5   5 1160.35 132.265   4
  13   5  -5 1163.32 172.766   2
  13   5  -4 276.155 97.7493   1
 -13   5   4 475.727 100.854   4
  13   5  -4 468.438 124.511   2
  13   5  -3 703.507 141.550   1
 -13   5   3 837.973 129.800   4
  13   5  -3 746.015 156.200   2
  13   5  -2 448.794 126.738   1
 -13   5   2 374.135 112.828   4
  13   5  -2 259.426 111.021   2
  13   5  -1 253.925 114.313   1
 -13   5   1 411.622 105.744   4
  13   5  -1 429.945 124.200   2
  13   5   0 430.502 156.821   1
 -13   5   0 156.559 91.6012   4
  13   5   0 313.923 117.209   2
 -13   5  -1 1515.71 205.642   4
  13   5   1 1725.49 228.799   2
  13   5   1 1747.29 220.754   1
 -13   5  -2 918.846 189.227   4
  13   5   2 965.866 180.455   2
  13   5   2 809.527 169.728   1
 -13   5  -3 358.863 141.751   4
  13   5   3 568.786 155.263   2
  13   5   3 657.520 184.789   1
 -13   5  -4-16.8703 116.781   4
  13   6 -15 51.8804 89.0951   4
  13   6 -15 354.419 129.799   6
 -13   6  15 33.4156 119.940   2
 -13   6  14 66.7603 110.529   2
  13   6 -14 43.4454 95.5436   4
  13   6 -14 47.0686 94.9227   6
  13   6 -13 131.041 91.8846   6
  13   6 -12 932.701 167.571   6
  13   6 -11 193.272 96.8742   2
  13   6 -11 172.660 102.978   6
  13   6 -10 328.284 115.244   2
  13   6 -10 149.363 96.4721   6
  13   6  -9 155.697 107.616   2
  13   6  -9 90.1464 95.8127   6
  13   6  -8 291.899 119.528   2
  13   6  -8 325.517 101.451   1
 -13   6   7 526.395 101.644   4
  13   6  -7 449.172 130.380   2
  13   6  -7 523.456 118.921   1
 -13   6   6 623.958 115.563   4
  13   6  -6 564.581 131.580   2
  13   6  -6 519.755 125.222   1
 -13   6   5 480.999 113.558   4
  13   6  -5 317.344 121.199   2
  13   6  -5 520.594 124.396   1
 -13   6   4 26.5952 90.2789   4
  13   6  -4 153.236 100.939   2
  13   6  -4 169.111 106.263   1
 -13   6   3 179.057 97.3297   4
  13   6  -3 101.510 96.7515   2
  13   6  -3 437.859 134.516   1
 -13   6   2 291.290 101.460   4
  13   6  -2 521.705 147.118   2
  13   6  -2 361.784 118.010   1
 -13   6   1 757.870 175.130   4
  13   6  -1 1140.70 182.749   2
  13   6  -1 1044.40 190.066   1
 -13   6   0 263.960 126.159   4
  13   6   0 461.563 155.498   2
  13   6   0 297.153 132.764   1
 -13   6  -1 204.700 167.396   4
  13   6   1 105.046 108.523   2
  13   6   1-29.2624 114.450   1
 -13   6  -2 107.588 95.0282   4
 -13   6  -3 1254.36 211.036   4
  13   7 -15 493.510 161.335   4
  13   7 -14 836.606 176.643   4
  13   7 -12 24.5911 86.6404   2
  13   7 -12 51.8021 92.1438   6
  13   7 -11 287.277 121.484   2
  13   7 -11-32.8580 110.399   6
  13   7 -10 46.2726 104.697   2
  13   7 -10-70.9506 122.974   6
  13   7  -9 459.919 144.203   2
  13   7  -9 154.588 108.968   6
  13   7  -8 753.798 157.036   2
  13   7  -8 627.686 151.601   6
  13   7  -7 844.811 179.763   2
  13   7  -6 680.192 154.582   2
 -13   7   5 784.439 141.541   4
  13   7  -5 645.540 153.760   2
 -13   7   4 217.126 95.7749   4
  13   7  -4 125.590 103.016   2
 -13   7   3 250.674 112.687   4
  13   7  -3 70.9559 113.954   2
 -13   7   2 137.562 131.988   4
  13   7  -2 201.932 139.772   2
 -13   7   1 213.044 111.447   4
 -13   7   0-9.09155 99.6429   4
 -13   7  -1 773.659 178.743   4
  13   8 -10 93.2613 95.4571   2
  13   8  -9 691.208 163.094   2
  13   8  -8 411.483 137.719   2
  13   8  -7 280.117 126.928   2
  13   8  -6 268.377 116.478   2
  13   8  -5 699.401 161.083   2
 -13   8   2 344.295 134.888   4
 -14  -8   5 599.479 157.436   7
 -14  -7   8 858.967 202.430   5
 -14  -7   7 665.985 141.111   7
 -14  -7   7 603.935 141.103   5
 -14  -7   6 676.440 144.892   7
 -14  -7   6 841.469 171.364   5
 -14  -7   5 374.544 119.145   7
 -14  -7   5 775.474 177.663   5
 -14  -7   4-26.0918 124.212   7
 -14  -7   4-10.6000 113.163   5
 -14  -7   3 256.488 111.667   7
 -14  -7   3 166.895 120.870   5
 -14  -7   2 745.393 164.038   7
 -14  -7   2 656.041 168.724   5
  14  -6 -16 1153.66 196.034   3
  14  -6 -15 735.166 170.829   3
  14  -6 -14 158.690 111.161   3
  14  -6 -13 56.4895 124.644   3
 -14  -6  13 77.3062 101.552   5
  14  -6 -12 739.910 160.493   3
 -14  -6  12 517.187 148.474   5
  14  -6 -11 570.595 142.908   3
 -14  -6  11 690.553 165.884   5
  14  -6 -10 938.952 180.493   3
 -14  -6  10 1212.19 212.649   5
  14  -6  -9 1023.23 194.161   3
 -14  -6   9 829.830 168.077   5
 -14  -6   8 857.770 142.624   7
  14  -6  -8 1250.50 197.297   3
 -14  -6   8 1053.44 188.191   5
 -14  -6   7 610.884 135.418   7
  14  -6  -7 754.851 181.309   3
 -14  -6   7 522.979 156.005   5
 -14  -6   6 768.618 155.618   7
  14  -6  -6 1258.67 210.141   3
 -14  -6   6 941.058 188.239   5
 -14  -6   5 1056.17 168.542   7
  14  -6  -5 982.831 179.266   3
 -14  -6   5 1050.96 207.934   5
 -14  -6   4 750.034 142.987   7
  14  -6  -4 958.613 198.724   3
 -14  -6   4 711.975 194.585   5
 -14  -6   3 419.827 130.523   7
  14  -6  -3 706.146 162.239   3
 -14  -6   3 681.141 175.232   5
 -14  -6   2 571.769 154.664   7
  14  -6  -2 387.699 143.191   3
 -14  -6   2 207.468 109.676   5
 -14  -6   1 0.36354 105.420   7
  14  -6  -1-49.7979 103.932   3
 -14  -6   1-258.588 127.521   5
 -14  -6   0 124.734 100.488   7
  14  -6   0 3.07905 110.321   3
  14  -6   1 694.228 163.050   3
  14  -6   2 838.915 188.071   3
  14  -6   3 734.315 173.928   3
  14  -5 -18 1208.04 197.220   3
  14  -5 -17 344.330 132.422   3
  14  -5 -16 86.4804 123.981   3
  14  -5 -15 1085.16 187.713   3
 -14  -5  15 400.908 140.863   5
  14  -5 -14 1055.84 183.764   3
 -14  -5  14 1058.02 204.996   5
  14  -5 -13 1397.09 215.040   3
 -14  -5  13 1551.46 226.508   5
  14  -5 -12 1915.38 228.638   3
 -14  -5  12 1568.24 224.579   5
  14  -5 -11 500.107 145.511   3
 -14  -5  11 481.407 147.493   5
  14  -5 -10 445.325 128.867   3
 -14  -5  10 438.437 139.528   5
 -14  -5   9 438.341 97.9096   7
  14  -5  -9 525.918 128.883   3
 -14  -5   9 281.947 115.496   5
 -14  -5   8 1593.76 165.632   7
  14  -5  -8 1591.25 210.371   3
 -14  -5   8 1397.87 203.587   5
 -14  -5   7 2030.51 190.442   7
  14  -5  -7 1958.42 227.238   3
 -14  -5   7 1835.94 220.454   5
 -14  -5   6 1503.04 173.397   7
  14  -5  -6 2183.73 239.828   3
 -14  -5   6 1791.33 220.283   5
 -14  -5   5 273.717 109.603   7
  14  -5  -5 514.813 138.555   3
 -14  -5   5 406.426 138.224   5
 -14  -5   4 403.763 120.416   7
  14  -5  -4 483.685 131.836   3
 -14  -5   4 639.175 135.616   5
 -14  -5   3 638.618 145.818   7
  14  -5  -3 813.483 166.363   3
 -14  -5   3 771.381 146.567   5
 -14  -5   2 1316.91 195.142   7
  14  -5  -2 1680.64 216.901   3
 -14  -5   2 1662.00 195.399   5
 -14  -5   1 1033.65 172.346   7
  14  -5  -1 1622.36 214.919   3
 -14  -5   1 1245.94 171.106   5
 -14  -5   0 575.989 146.478   7
  14  -5   0 1145.23 193.422   3
 -14  -5   0 832.173 143.222   5
 -14  -5  -1 754.884 182.955   7
  14  -5   1 724.442 158.261   3
 -14  -5  -2-101.080 136.198   7
  14  -5   2-11.5043 99.4727   3
  14  -5   3 204.513 115.057   3
  14  -4 -19 232.310 117.334   3
  14  -4 -18 146.111 126.749   3
 -14  -4  17 178.368 112.048   5
  14  -4 -17 157.596 114.991   3
 -14  -4  16 1066.64 200.763   5
  14  -4 -16 1079.39 192.279   3
 -14  -4  15 1510.74 219.794   5
  14  -4 -15 1348.36 200.146   3
 -14  -4  14 377.856 128.590   5
  14  -4 -14 539.706 159.801   3
 -14  -4  13 320.572 135.442   5
  14  -4 -13 200.309 103.320   3
 -14  -4  12 1153.44 188.782   5
  14  -4 -12 1386.25 187.784   3
  14  -4 -11 2637.09 249.839   3
 -14  -4  11 2751.55 265.890   5
 -14  -4  10 6512.77 250.008   7
  14  -4 -10 7115.38 399.042   3
 -14  -4  10 6996.90 404.298   5
 -14  -4   9 4470.57 227.360   7
  14  -4  -9 4371.18 313.838   3
 -14  -4   9 4343.39 317.106   5
 -14  -4   8 716.229 102.948   7
 -14  -4   8 844.435 152.416   5
  14  -4  -8 958.057 153.221   3
 -14  -4   7 813.605 123.269   7
 -14  -4   7 737.289 145.979   5
  14  -4  -7 717.341 149.447   3
 -14  -4   6 690.626 117.528   7
 -14  -4   6 523.590 125.277   5
  14  -4  -6 578.581 134.647   3
 -14  -4   5 4204.11 271.876   7
  14  -4  -5 4552.62 321.200   3
 -14  -4   5 4214.05 293.443   5
 -14  -4   4 6529.10 349.262   7
  14  -4  -4 6765.72 389.807   3
 -14  -4   4 7000.94 369.293   5
 -14  -4   3 2628.59 236.575   7
  14  -4  -3 2776.21 253.533   3
 -14  -4   3 2762.27 233.402   5
 -14  -4   2 1079.16 169.128   7
  14  -4  -2 1417.56 192.456   3
 -14  -4   2 1060.70 154.489   5
 -14  -4   1 353.890 134.203   7
  14  -4  -1 498.519 123.747   3
 -14  -4   1 370.425 103.821   5
 -14  -4   0 402.010 126.892   7
  14  -4   0 460.807 129.025   3
 -14  -4   0 393.820 98.9845   5
 -14  -4  -1 1151.95 189.076   7
  14  -4   1 1652.29 209.368   3
 -14  -4  -2 924.221 185.535   7
  14  -4   2 1038.10 174.873   3
 -14  -4  -3 197.340 132.454   7
  14  -4   3 73.2081 105.544   3
  14  -4   4 8.03995 98.1140   3
  14  -4   5 380.817 159.263   1
 -14  -3  19 440.166 147.937   5
  14  -3 -19 136.528 97.7926   3
 -14  -3  18 608.686 157.854   5
  14  -3 -18 573.923 156.635   3
 -14  -3  17 521.062 147.949   5
  14  -3 -17 599.210 151.854   3
 -14  -3  16 200.886 125.489   5
  14  -3 -16 243.331 109.457   3
 -14  -3  15-26.3250 93.9351   5
  14  -3 -15 89.4231 108.749   3
 -14  -3  14 2171.77 241.990   5
  14  -3 -14 1901.48 207.509   3
 -14  -3  13 2560.08 250.100   5
  14  -3 -13 2631.39 238.903   3
 -14  -3  12 6487.02 384.359   5
  14  -3 -12 6414.30 366.746   3
 -14  -3  11 1621.34 198.372   5
  14  -3 -11 1622.66 191.279   3
 -14  -3  10 658.992 142.439   5
  14  -3 -10 572.162 134.464   3
 -14  -3   9 2587.51 158.761   7
 -14  -3   9 2754.13 245.836   5
  14  -3  -9 3220.65 257.770   3
 -14  -3   8 6145.27 260.240   7
 -14  -3   8 6706.82 368.134   5
  14  -3  -8 6831.32 371.927   3
 -14  -3   7 6955.46 294.830   7
 -14  -3   7 6340.93 348.156   5
  14  -3  -7 6862.37 376.494   3
 -14  -3   6 6731.13 303.267   7
 -14  -3   6 6607.61 349.310   5
  14  -3  -6 7000.22 374.163   3
  14  -3  -5 2634.96 182.670   4
 -14  -3   5 3046.23 220.596   7
  14  -3  -5 3010.99 252.877   3
 -14  -3   5 2974.10 237.915   5
 -14  -3   4 671.691 121.628   7
 -14  -3   4 777.843 138.302   5
  14  -3  -4 886.472 151.428   3
 -14  -3   3 2002.92 197.709   7
 -14  -3   3 1931.64 189.758   5
  14  -3  -3 1762.41 196.084   3
 -14  -3   2 6498.89 357.946   7
  14  -3  -2 6649.87 368.296   3
 -14  -3   2 6615.22 327.979   5
 -14  -3   1 2629.98 243.781   7
  14  -3  -1 3223.90 266.609   3
 -14  -3   1 2615.85 205.457   5
 -14  -3   0 1876.26 215.778   7
 -14  -3   0 1779.15 168.663   5
  14  -3   0 2066.12 218.801   3
  14  -3   1 140.517 80.0564   2
 -14  -3  -1 272.230 116.841   7
 -14  -3  -1 147.626 71.4704   5
  14  -3   1 277.351 122.566   3
 -14  -3  -2-135.187 95.6764   7
  14  -3   2 31.6735 81.7242   3
 -14  -3  -3 732.312 178.565   7
  14  -3   3 588.452 131.985   3
 -14  -3  -4 497.886 157.579   7
  14  -3   4 839.861 175.432   1
  14  -3   4 755.840 146.688   3
  14  -3   5 659.222 154.336   1
  14  -3   6 194.695 95.9105   1
 -14  -2  20 225.131 135.693   5
 -14  -2  19 635.044 172.600   5
  14  -2 -19 554.664 137.512   3
 -14  -2  18 610.893 154.067   5
  14  -2 -18 800.271 147.342   3
 -14  -2  17 1656.92 222.975   5
  14  -2 -17 2074.97 222.803   3
 -14  -2  16 2575.44 260.690   5
  14  -2 -16 2283.08 228.624   3
 -14  -2  15 3225.64 293.371   5
  14  -2 -15 2935.84 246.933   3
 -14  -2  14 4051.94 316.578   5
  14  -2 -14 4133.78 290.483   3
 -14  -2  13 1856.96 211.400   5
  14  -2 -13 1984.87 209.468   3
  14  -2 -12 1032.84 148.323   3
 -14  -2  12 1229.69 180.829   5
  14  -2 -11 2687.31 162.312   7
 -14  -2  11 2518.61 242.193   5
  14  -2 -11 2476.66 225.013   3
  14  -2 -10 2971.47 175.844   7
 -14  -2  10 3098.40 253.797   5
  14  -2 -10 2790.30 233.451   3
  14  -2  -9 2536.52 174.627   7
 -14  -2   9 2767.01 234.683   5
  14  -2  -9 2737.09 228.697   3
  14  -2  -8 1958.81 163.265   7
 -14  -2   8 2187.58 209.260   5
  14  -2  -8 2219.28 209.775   3
  14  -2  -7 196.936 91.6083   3
  14  -2  -7 227.560 56.5935   4
 -14  -2   7 477.451 110.457   5
  14  -2  -6 1879.92 135.355   4
 -14  -2   6 2176.43 197.026   5
  14  -2  -6 2526.04 222.288   3
  14  -2  -5 2477.25 167.316   4
 -14  -2   5 2596.89 199.769   7
 -14  -2   5 2821.75 223.598   5
  14  -2  -5 2726.30 230.886   3
  14  -2  -4 2635.07 185.198   4
 -14  -2   4 2532.26 204.202   7
 -14  -2   4 2952.02 227.436   5
  14  -2  -4 3107.62 245.206   3
 -14  -2   3 2581.83 220.516   7
 -14  -2   3 2541.13 205.686   5
  14  -2  -3 2983.78 248.475   3
 -14  -2   2 1301.67 168.960   7
 -14  -2   2 1308.32 151.378   5
  14  -2  -2 1431.50 172.781   3
 -14  -2   1 2159.18 216.887   7
 -14  -2   1 2091.09 181.227   5
  14  -2  -1 2027.03 203.668   3
  14  -2   0 4166.44 261.374   2
 -14  -2   0 4300.57 308.999   7
 -14  -2   0 4434.98 251.376   5
  14  -2   0 4095.11 284.523   3
  14  -2   1 3234.37 232.766   2
 -14  -2  -1 2890.05 263.871   7
 -14  -2  -1 2929.79 196.535   5
  14  -2   1 2925.60 242.972   3
  14  -2   2 2675.47 217.238   2
  14  -2   2 2689.84 232.348   3
  14  -2   3 2250.40 201.358   2
  14  -2   3 2141.13 224.434   1
  14  -2   3 1939.48 201.692   3
  14  -2   4 657.975 125.011   3
  14  -2   4 1097.22 174.404   1
  14  -2   5 882.401 161.477   1
  14  -2   6 342.959 118.716   1
 -14  -1  21 190.296 129.213   5
  14  -1 -20 529.795 130.947   3
 -14  -1  20 582.205 156.744   5
  14  -1 -19 698.890 140.439   3
 -14  -1  19 696.191 170.156   5
  14  -1 -18 1235.80 182.137   3
 -14  -1  18 1265.23 194.298   5
  14  -1 -17 164.216 95.2719   3
 -14  -1  17 91.2287 97.6110   5
  14  -1 -16 383.685 115.406   3
 -14  -1  16 419.415 122.408   5
  14  -1 -15 1346.54 169.464   3
 -14  -1  15 1015.10 177.168   5
  14  -1 -14 981.046 146.919   3
 -14  -1  14 1438.38 194.785   5
 -14  -1  13 3085.61 268.496   5
  14  -1 -13 2759.75 232.740   3
  14  -1 -12 3049.51 122.510   7
 -14  -1  12 3069.85 263.755   5
  14  -1 -12 3091.48 243.468   3
  14  -1 -11 2264.16 122.025   7
 -14  -1  11 2071.37 208.842   5
  14  -1 -11 2378.19 211.714   3
  14  -1 -10 294.231 91.7082   3
  14  -1 -10 265.912 66.7767   7
 -14  -1  10 195.161 104.126   5
  14  -1  -9 1248.87 163.854   3
  14  -1  -9 835.982 59.2717   4
  14  -1  -9 1122.73 109.355   7
 -14  -1   9 985.903 151.486   5
  14  -1  -8 2326.86 116.337   4
  14  -1  -8 2567.95 167.610   7
 -14  -1   8 2985.33 237.485   5
  14  -1  -8 2924.45 231.767   3
  14  -1  -7 2048.19 125.080   4
  14  -1  -7 2045.38 159.178   7
 -14  -1   7 2018.50 194.930   5
  14  -1  -7 2065.81 202.347   3
  14  -1  -6 2416.83 151.303   4
  14  -1  -6 2563.19 190.605   7
 -14  -1   6 2616.47 213.494   5
  14  -1  -6 2820.35 229.143   3
  14  -1  -5 1587.05 175.488   3
  14  -1  -5 1044.99 110.775   4
 -14  -1   5 1405.35 165.367   5
  14  -1  -4 126.246 73.5375   3
  14  -1  -4 125.872 75.3715   4
 -14  -1   4 251.820 74.6203   5
 -14  -1   3 2145.45 186.637   5
  14  -1  -3 1939.45 193.142   3
 -14  -1   2 2707.41 204.870   5
  14  -1  -2 2825.65 224.650   3
 -14  -1   1 2689.49 200.664   5
  14  -1  -1 2530.63 214.951   3
  14  -1   0 1337.05 163.024   2
 -14  -1   0 1206.64 133.408   5
  14  -1   0 1216.80 158.723   3
  14  -1   1 1136.90 149.595   2
  14  -1   1 1396.10 168.607   3
  14  -1   2 581.113 126.722   2
  14  -1   2 361.286 102.511   3
  14  -1   2 479.120 129.185   1
  14  -1   3 76.2328 74.0612   2
  14  -1   3 133.331 92.0337   1
  14  -1   3 229.626 90.4069   3
  14  -1   4 1543.22 212.109   1
  14  -1   4 1739.39 188.072   2
  14  -1   5 853.695 168.469   1
  14  -1   5 1034.77 156.204   2
  14  -1   6 337.033 128.675   1
 -14   0  21 932.963 191.167   5
  14   0 -20 571.880 132.317   3
 -14   0  20 633.211 164.808   5
  14   0 -19 894.998 153.078   3
 -14   0  19 555.588 160.159   5
  14   0 -18 197.219 96.6438   3
 -14   0  18 190.674 108.655   5
  14   0 -17 431.413 135.636   3
 -14   0  17 176.954 104.547   5
  14   0 -16 369.796 116.736   3
 -14   0  16 194.195 91.0867   5
  14   0 -15 272.886 95.5083   3
 -14   0  15 283.163 114.068   5
  14   0 -14 264.843 96.4364   3
 -14   0  14 262.535 114.149   5
  14   0 -13 653.956 125.053   3
 -14   0  13 745.042 144.554   5
  14   0 -12 3318.38 168.646   6
 -14   0  12 3025.04 254.549   5
  14   0 -12 3144.93 245.443   3
  14   0 -11 4395.80 143.344   7
  14   0 -11 4854.76 186.177   6
 -14   0  11 4133.74 293.216   5
  14   0 -11 4439.59 289.379   3
  14   0 -10 2975.65 106.695   4
  14   0 -10 3367.71 148.547   7
  14   0 -10 3866.63 150.088   6
 -14   0  10 3520.83 265.486   5
  14   0 -10 3532.87 257.505   3
  14   0  -9 1713.36 100.339   4
  14   0  -9 1973.28 129.826   7
  14   0  -9 2109.16 102.137   6
 -14   0   9 1886.69 190.806   5
  14   0  -9 1868.17 188.537   3
  14   0  -8 2667.47 136.616   4
  14   0  -8 3068.31 173.604   7
  14   0  -8 2930.73 110.137   6
 -14   0   8 2720.35 228.970   5
  14   0  -8 2917.71 230.362   3
  14   0  -7 330.390 99.3270   3
  14   0  -7 206.964 61.5858   4
  14   0  -7 215.612 72.6956   7
  14   0  -7 228.222 34.1774   6
 -14   0   7 339.547 103.363   5
  14   0  -6 2550.72 159.409   4
  14   0  -6 2870.89 190.271   7
  14   0  -6 2269.79 91.9455   6
 -14   0   6 2899.59 227.910   5
  14   0  -6 2797.95 221.892   3
  14   0  -5 1847.27 151.783   4
 -14   0   5 2055.03 192.036   5
  14   0  -5 1815.55 189.935   3
  14   0  -4 3407.31 209.711   4
 -14   0   4 3666.57 245.076   5
  14   0  -4 3729.29 253.175   3
 -14   0   3 4316.58 260.731   5
  14   0  -3 4285.10 265.074   3
 -14   0   2 3152.97 216.633   5
  14   0  -2 2861.72 224.320   3
  14   0  -1 709.156 123.614   3
  14   0  -1 974.696 139.856   2
  14   0  -1 788.841 115.508   5
  14   0   0 330.096 93.3711   3
  14   0   0 306.619 103.758   2
  14   0   0 365.793 105.513   1
  14   0   1 265.256 96.4842   3
  14   0   1 159.317 100.388   1
  14   0   1 178.820 90.5000   2
  14   0   2 371.122 110.627   1
  14   0   2 523.405 115.999   2
  14   0   2 468.078 103.904   3
  14   0   3 89.9204 77.2317   2
  14   0   3 216.216 110.615   1
  14   0   3 42.2074 70.6458   3
  14   0   4 407.626 121.014   1
  14   0   4 455.864 119.637   2
  14   0   5 851.345 168.932   1
  14   0   5 1022.40 165.385   2
  14   0   6 830.065 150.482   2
  14   0   6 747.157 163.082   1
 -14   1  21 296.050 128.028   5
  14   1 -20 483.148 134.717   3
 -14   1  20 475.650 153.592   5
  14   1 -19 792.895 160.235   3
 -14   1  19 156.982 106.377   5
  14   1 -18 1405.49 186.674   3
 -14   1  18 1292.91 196.263   5
  14   1 -17 158.178 100.212   3
 -14   1  17 161.772 93.1253   5
  14   1 -16 495.602 126.320   3
  14   1 -16 533.722 107.331   6
 -14   1  16 253.879 95.5057   5
  14   1 -15 888.087 148.768   3
  14   1 -15 1276.71 142.572   6
 -14   1  15 1209.44 185.300   5
  14   1 -14 1224.43 166.546   3
  14   1 -14 1248.00 135.551   6
 -14   1  14 1105.37 176.763   5
  14   1 -13 2887.77 236.586   3
  14   1 -13 2884.52 186.466   6
 -14   1  13 2439.53 245.266   5
  14   1 -12 3231.18 246.861   3
  14   1 -12 2997.30 181.183   6
 -14   1  12 2608.86 249.195   5
  14   1 -11 2039.18 111.850   4
  14   1 -11 2025.72 203.667   3
  14   1 -11 1987.31 140.647   6
 -14   1  11 1944.83 211.961   5
  14   1 -10 321.212 96.6348   3
  14   1 -10 238.660 53.8117   4
  14   1 -10 178.770 48.2943   7
  14   1 -10 281.059 66.5008   6
 -14   1  10 336.573 109.560   5
  14   1  -9 1314.82 106.670   4
  14   1  -9 1403.92 170.507   3
  14   1  -9 1201.62 108.429   7
  14   1  -9 1361.28 113.888   6
 -14   1   9 1222.18 168.221   5
  14   1  -8 2524.12 219.506   3
  14   1  -8 2524.66 156.118   4
  14   1  -8 2383.59 152.170   7
  14   1  -8 2466.39 139.268   6
 -14   1   8 2143.28 215.799   5
  14   1  -7 2092.45 148.011   4
  14   1  -7 1946.26 155.797   7
  14   1  -7 1944.34 125.718   6
 -14   1   7 2286.10 208.501   5
  14   1  -7 2166.51 202.678   3
  14   1  -6 2560.84 169.690   4
  14   1  -6 2785.60 187.815   7
 -14   1   6 2510.20 213.598   5
  14   1  -6 2621.41 214.838   3
  14   1  -5 1043.71 146.189   3
  14   1  -5 1057.61 124.024   4
 -14   1   5 1283.24 162.274   5
  14   1  -4 157.402 76.2180   3
 -14   1   4 220.793 79.9011   5
  14   1  -3 2224.50 198.463   3
  14   1  -2 3457.26 253.235   2
  14   1  -2 3411.04 255.521   1
  14   1  -2 2981.59 226.429   3
  14   1  -1 3322.27 252.508   2
  14   1  -1 3136.21 256.885   1
  14   1  -1 2978.26 226.862   3
  14   1   0 1320.11 158.737   3
  14   1   0 1194.36 172.118   1
  14   1   0 1534.43 185.797   2
  14   1   1 1303.30 150.126   3
  14   1   1 1446.50 179.946   2
  14   1   1 1291.49 188.557   1
  14   1   2 557.107 104.001   3
  14   1   2 601.457 137.239   2
  14   1   2 522.236 129.777   1
  14   1   3 231.260 78.7650   3
  14   1   3 360.572 122.884   1
  14   1   3 129.463 90.2287   2
  14   1   4 1673.30 208.991   2
  14   1   4 1379.57 208.839   1
  14   1   5 836.836 158.837   2
  14   1   5 938.847 188.870   1
  14   1   6 692.815 157.452   2
  14   1   7 436.462 141.590   2
  14   2 -20 323.333 131.369   3
  14   2 -19 652.650 159.177   3
  14   2 -19 788.365 153.519   6
  14   2 -18 615.671 154.989   3
  14   2 -18 1255.78 177.816   6
  14   2 -17 1904.33 197.910   6
  14   2 -16 2817.42 229.415   6
 -14   2  16 2748.26 267.432   5
  14   2 -15 3522.77 242.483   6
 -14   2  15 3125.54 288.729   5
  14   2 -14 4311.12 257.373   6
 -14   2  14 4439.29 323.766   5
  14   2 -13 1804.64 128.875   4
  14   2 -13 2003.80 173.116   6
 -14   2  13 1782.45 213.754   5
  14   2 -12 1444.26 142.732   6
 -14   2  12 1391.91 189.739   5
  14   2 -11 2780.44 185.883   6
 -14   2  11 2645.67 247.093   5
  14   2 -10 2751.39 178.555   6
 -14   2  10 2582.99 238.028   5
  14   2  -9 2727.93 172.166   6
  14   2  -8 1563.22 141.205   4
  14   2  -8 1738.07 150.117   7
  14   2  -8 1941.32 150.870   6
  14   2  -7 217.075 66.3518   4
  14   2  -7 218.639 74.4941   7
  14   2  -7 376.647 82.2032   6
  14   2  -6 1739.82 163.150   7
  14   2  -6 1931.78 181.744   1
  14   2  -5 2624.64 218.226   1
 -14   2   4 2555.31 183.310   4
  14   2  -4 2589.17 216.169   1
 -14   2   3 2077.92 176.909   4
  14   2  -3 2222.90 216.227   2
  14   2  -3 2377.99 215.633   1
  14   2  -2 1300.94 155.990   3
 -14   2   2 1297.34 150.615   4
  14   2  -2 1291.93 181.410   2
  14   2  -2 1345.68 178.317   1
  14   2  -1 2445.09 233.009   2
 -14   2   1 1791.09 188.056   4
  14   2  -1 1951.79 208.289   1
  14   2  -1 1687.87 179.041   3
 -14   2   0 3651.76 272.340   4
  14   2   0 4392.02 307.369   2
  14   2   0 4573.55 312.643   1
  14   2   0 4181.39 269.325   3
 -14   2  -1 2711.91 246.434   4
  14   2   1 3585.02 281.604   2
  14   2   1 2772.14 259.906   1
  14   2   1 2878.10 221.382   3
 -14   2  -2 2618.66 267.534   4
  14   2   2 3047.04 272.170   2
  14   2   2 2971.55 272.160   1
  14   2   2 2120.90 190.176   3
 -14   2  -3 1739.11 216.026   4
  14   2   3 2371.97 243.275   2
  14   2   3 2007.89 236.792   1
  14   2   3 1883.32 173.959   3
 -14   2  -4 780.077 178.275   4
  14   2   4 1163.34 184.663   2
  14   2   4 1128.98 199.320   1
 -14   2  -5 410.402 139.974   4
  14   2   5 739.469 156.388   2
  14   2   6 366.826 152.266   2
  14   3 -20 567.302 141.413   6
  14   3 -19 636.324 149.519   6
  14   3 -18 627.130 137.467   6
  14   3 -17 693.992 139.379   6
  14   3 -16 97.7290 87.3884   6
  14   3 -15 146.643 83.0256   6
  14   3 -14 2177.19 162.725   4
  14   3 -14 2185.23 201.880   6
  14   3 -13 2788.16 219.027   6
  14   3 -13 2792.61 176.456   1
  14   3 -12 6890.59 322.788   6
  14   3 -12 7076.05 279.938   1
  14   3 -11 1944.25 173.681   6
  14   3 -11 1924.09 162.240   1
  14   3 -10 571.642 108.129   1
  14   3 -10 813.714 118.708   6
  14   3  -9 2953.74 203.382   6
  14   3  -9 2871.81 204.263   1
  14   3  -8 6872.91 307.311   1
  14   3  -8 6223.44 297.704   6
 -14   3   7 6453.12 228.815   4
  14   3  -7 6793.71 323.574   1
 -14   3   6 6917.47 259.728   4
  14   3  -6 7262.27 335.679   1
 -14   3   5 2753.01 180.254   4
  14   3  -5 2935.27 228.830   1
 -14   3   4 521.197 94.2909   4
  14   3  -4 767.174 142.855   2
  14   3  -4 812.316 137.061   1
 -14   3   3 1772.32 168.299   4
  14   3  -3 1999.73 212.764   2
  14   3  -3 2149.50 211.413   1
 -14   3   2 5895.00 313.241   4
  14   3  -2 6657.13 374.656   2
  14   3  -2 6567.66 352.745   1
 -14   3   1 2717.60 229.770   4
  14   3  -1 2836.44 263.983   2
  14   3  -1 3054.46 262.833   1
 -14   3   0 1832.22 197.519   4
  14   3   0 2018.81 223.182   2
  14   3   0 2015.14 224.167   1
  14   3   1 84.4192 63.7521   3
 -14   3  -1 70.0651 92.5581   4
  14   3   1 276.405 116.106   2
  14   3   1 139.575 126.946   1
  14   3   2 13.7374 57.9054   3
 -14   3  -2 225.748 136.708   4
  14   3   2-79.2618 91.8069   2
  14   3   2-61.7607 116.424   1
 -14   3  -3 626.818 145.896   4
  14   3   3 478.878 133.792   1
  14   3   3 611.210 155.243   2
 -14   3  -4 488.358 146.765   4
  14   3   4 686.697 164.103   1
  14   3   4 1063.96 193.317   2
 -14   3  -5 684.875 167.961   4
  14   3   5 662.460 161.630   2
  14   4 -19-92.1680 101.453   6
  14   4 -18 70.6913 98.2286   6
  14   4 -17 561.567 123.761   6
  14   4 -16 1430.18 196.732   6
  14   4 -15 1667.23 198.030   6
  14   4 -14 389.070 102.311   4
  14   4 -14 642.789 124.046   6
  14   4 -13 370.869 96.6913   6
  14   4 -12 1196.40 154.672   6
  14   4 -12 1127.62 119.825   1
  14   4 -11 2575.54 181.505   1
  14   4 -11 3178.23 240.933   6
  14   4 -10 7078.55 301.305   1
  14   4 -10 7057.90 343.259   6
  14   4  -9 4251.55 246.138   1
  14   4  -9 4096.21 264.819   6
  14   4  -8 757.664 120.759   1
 -14   4   8 581.674 73.2313   4
  14   4  -8 618.114 120.690   6
 -14   4   7 661.517 88.4569   4
  14   4  -7 802.506 126.779   1
 -14   4   6 739.763 98.7998   4
  14   4  -6 794.181 149.437   2
  14   4  -6 874.559 139.029   1
 -14   4   5 4135.64 230.341   4
  14   4  -5 4547.56 316.677   2
  14   4  -5 4530.09 288.902   1
 -14   4   4 7062.94 320.311   4
  14   4  -4 7214.53 393.327   2
  14   4  -4 7079.14 362.169   1
 -14   4   3 2914.14 223.368   4
  14   4  -3 3287.69 272.897   2
  14   4  -3 3011.94 256.928   1
 -14   4   2 1144.73 149.980   4
  14   4  -2 1368.87 195.772   2
  14   4  -2 1423.82 186.097   1
 -14   4   1 224.588 97.1833   4
  14   4  -1 291.419 116.886   2
  14   4  -1 357.299 124.312   1
 -14   4   0 262.435 115.616   4
  14   4   0 421.365 142.050   1
  14   4   0 329.770 127.735   2
 -14   4  -1 1235.88 190.376   4
  14   4   1 1518.02 216.476   1
  14   4   1 1616.43 211.094   2
  14   4   2 1323.74 202.315   1
 -14   4  -2 1183.26 221.849   4
  14   4   2 1268.31 196.905   2
  14   4   3 159.728 127.637   1
 -14   4  -3 236.482 116.228   4
  14   4   3 161.927 135.439   2
 -14   4  -4 9.04950 123.611   4
  14   5 -17 293.187 128.352   6
  14   5 -16 1.32072 88.5686   6
  14   5 -15 822.137 159.750   6
  14   5 -14 1074.17 171.615   6
  14   5 -13 1397.71 188.929   6
  14   5 -12 1455.84 193.925   6
  14   5 -11 817.628 147.621   6
  14   5 -10 450.755 106.834   1
  14   5 -10 570.733 125.013   6
  14   5  -9 358.731 94.4131   1
  14   5  -9 431.229 114.906   6
  14   5  -8 1796.39 175.406   1
  14   5  -8 1780.70 201.690   2
 -14   5   7 1924.71 154.114   4
  14   5  -7 1978.62 190.691   1
  14   5  -7 2011.89 219.552   2
 -14   5   6 1776.71 157.809   4
  14   5  -6 1986.80 197.729   1
  14   5  -6 2053.15 225.985   2
  14   5  -5 224.296 95.5705   1
 -14   5   5 302.068 79.7272   4
  14   5  -5 590.343 140.919   2
  14   5  -4 562.325 132.769   1
 -14   5   4 371.013 95.6640   4
  14   5  -4 346.645 133.797   2
  14   5  -3 751.537 155.331   1
 -14   5   3 518.434 111.992   4
  14   5  -3 735.852 149.469   2
  14   5  -2 1769.74 216.411   1
 -14   5   2 1803.94 194.325   4
  14   5  -2 1462.28 200.594   2
  14   5  -1 1583.44 211.841   1
 -14   5   1 1522.74 196.014   4
  14   5  -1 1352.40 206.681   2
  14   5   0 1075.62 182.979   1
 -14   5   0 847.918 163.598   4
  14   5   0 922.737 176.599   2
  14   5   1 985.728 191.337   1
 -14   5  -1 483.613 167.483   4
  14   5   1 915.928 170.040   2
 -14   5  -2 61.4508 104.536   4
  14   5   2 281.127 165.857   1
 -14   5  -3 308.412 140.370   4
  14   6 -15 845.129 167.529   6
  14   6 -14 94.4476 102.934   6
  14   6 -13 190.835 116.161   6
  14   6 -12 633.116 149.938   2
  14   6 -12 560.252 137.746   6
  14   6 -11 703.919 153.954   2
  14   6 -11 512.073 138.731   6
  14   6 -10 769.260 156.353   2
  14   6 -10 818.588 156.660   6
  14   6  -9 1032.54 186.758   2
  14   6  -9 908.529 163.954   6
  14   6  -8 782.161 150.494   2
  14   6  -8 1017.64 144.972   1
  14   6  -7 863.371 159.026   2
  14   6  -7 948.022 147.641   1
  14   6  -6 880.028 163.532   2
  14   6  -6 1048.47 162.011   1
 -14   6   5 1103.59 148.963   4
  14   6  -5 1115.85 186.933   2
  14   6  -5 1208.09 176.464   1
 -14   6   4 810.920 134.510   4
  14   6  -4 920.476 173.363   2
  14   6  -4 891.846 169.187   1
 -14   6   3 653.596 130.144   4
  14   6  -3 845.006 176.736   2
  14   6  -3 817.089 160.332   1
 -14   6   2 459.193 141.772   4
  14   6  -2 686.261 170.284   2
  14   6  -2 618.697 148.645   1
 -14   6   1 283.055 139.282   4
  14   6  -1 75.7570 107.714   2
  14   6  -1 71.8566 126.819   1
 -14   6   0-124.875 118.834   4
  14   6   0 177.167 121.976   1
 -14   6  -1 615.615 153.980   4
 -14   6  -2 1150.08 204.302   4
  14   7 -13 947.406 172.632   2
  14   7 -12 358.621 106.396   2
  14   7 -11 599.738 146.114   2
  14   7 -11 702.112 166.923   6
  14   7 -10 117.993 107.269   2
  14   7 -10 384.509 139.324   6
  14   7  -9 850.927 185.255   2
  14   7  -9 599.763 140.690   6
  14   7  -8 1241.95 199.178   2
  14   7  -8 792.979 163.388   6
  14   7  -7 608.935 144.399   2
  14   7  -6 854.704 174.300   2
  14   7  -5 631.322 161.187   2
  14   7  -4 168.707 126.368   2
 -14   7   3 606.999 151.102   4
 -14   7   2 899.340 177.265   4
 -14   7   1 895.866 181.110   4
 -14   7   0 654.605 159.146   4
  14   8 -10 2070.73 249.993   2
  14   8  -9 972.323 176.020   2
 -15  -7   6 160.238 110.797   7
 -15  -7   6 339.147 125.936   5
 -15  -7   5 255.831 110.140   7
 -15  -7   5 46.5711 104.924   5
 -15  -7   4 462.193 159.074   7
 -15  -7   4 408.633 128.432   5
 -15  -7   3 431.511 152.764   7
 -15  -7   3 343.021 123.927   5
  15  -6 -13 89.3335 104.969   3
  15  -6 -12 313.952 133.543   3
  15  -6 -11 142.502 108.442   3
 -15  -6  11 270.708 145.391   5
  15  -6 -10 354.459 152.106   3
 -15  -6  10 318.557 119.959   5
  15  -6  -9 758.712 166.309   3
 -15  -6   9 1088.49 204.582   5
  15  -6  -8 883.285 176.646   3
 -15  -6   8 900.590 182.541   5
 -15  -6   7 689.991 135.787   7
  15  -6  -7 524.052 152.483   3
 -15  -6   7 840.904 172.796   5
 -15  -6   6 592.388 130.001   7
  15  -6  -6 919.955 175.009   3
 -15  -6   6 877.632 173.529   5
 -15  -6   5 278.320 112.455   7
  15  -6  -5 155.757 112.193   3
 -15  -6   5 375.095 147.711   5
 -15  -6   4 361.007 137.560   7
  15  -6  -4 276.136 134.605   3
 -15  -6   4 131.360 131.198   5
 -15  -6   3 16.2416 110.495   7
  15  -6  -3 366.748 149.714   3
 -15  -6   3 198.785 143.433   5
 -15  -6   2-27.4712 120.942   7
  15  -6  -2 61.5427 113.244   3
 -15  -6   2 324.142 135.508   5
 -15  -6   1 472.320 158.517   7
  15  -5 -18 892.077 183.429   3
  15  -5 -17 254.091 130.011   3
  15  -5 -16 396.478 120.875   3
  15  -5 -15 134.989 129.858   3
  15  -5 -14 627.484 156.481   3
 -15  -5  14 844.801 173.432   5
  15  -5 -13 1098.86 198.753   3
 -15  -5  13 727.258 159.112   5
  15  -5 -12 983.514 186.023   3
 -15  -5  12 1072.76 192.842   5
  15  -5 -11 690.915 153.245   3
 -15  -5  11 759.018 173.382   5
  15  -5 -10 844.122 166.142   3
 -15  -5  10 759.690 159.845   5
  15  -5  -9 370.307 126.487   3
 -15  -5   9 385.087 148.514   5
 -15  -5   8 490.457 105.990   7
  15  -5  -8 511.725 142.786   3
 -15  -5   8 604.212 153.816   5
 -15  -5   7 343.269 102.399   7
  15  -5  -7 670.525 147.939   3
 -15  -5   7 553.110 154.300   5
 -15  -5   6 523.987 121.830   7
  15  -5  -6 395.803 141.491   3
 -15  -5   6 444.071 151.232   5
 -15  -5   5 677.010 142.052   7
  15  -5  -5 939.909 177.391   3
 -15  -5   5 948.582 187.847   5
 -15  -5   4 662.310 135.733   7
  15  -5  -4 634.021 144.185   3
 -15  -5   4 742.131 161.506   5
 -15  -5   3 996.662 175.947   7
  15  -5  -3 1062.76 172.461   3
 -15  -5   3 914.609 158.448   5
 -15  -5   2 815.568 162.126   7
  15  -5  -2 907.381 174.863   3
 -15  -5   2 880.611 155.993   5
 -15  -5   1 856.810 172.682   7
  15  -5  -1 549.866 153.800   3
 -15  -5   1 664.483 120.356   5
 -15  -5   0 126.384 102.723   7
  15  -5   0-36.0482 100.166   3
 -15  -5  -1 588.500 174.324   7
  15  -5   1 251.061 135.387   3
  15  -5   2 345.498 115.122   3
  15  -5   3 1402.96 217.532   3
  15  -4 -19 589.679 158.502   3
  15  -4 -18 96.9959 109.016   3
  15  -4 -17 248.863 132.463   3
 -15  -4  16 940.028 190.219   5
  15  -4 -16 576.039 141.258   3
 -15  -4  15 1117.33 199.818   5
  15  -4 -15 574.188 136.249   3
 -15  -4  14 1389.17 218.413   5
  15  -4 -14 1734.88 220.401   3
 -15  -4  13 444.331 147.012   5
  15  -4 -13 878.689 168.404   3
 -15  -4  12 797.815 168.557   5
  15  -4 -12 988.313 168.408   3
 -15  -4  11 452.624 130.740   5
  15  -4 -11 943.623 166.973   3
 -15  -4  10 1692.97 213.787   5
  15  -4 -10 1631.42 204.632   3
 -15  -4   9 929.039 116.279   7
 -15  -4   9 805.960 161.551   5
  15  -4  -9 1163.35 177.612   3
 -15  -4   8 253.255 87.8559   7
 -15  -4   8 356.867 124.141   5
  15  -4  -8 338.170 117.690   3
 -15  -4   7 168.723 85.1056   7
 -15  -4   7 359.826 113.079   5
  15  -4  -7 379.113 129.620   3
 -15  -4   6 997.878 139.810   7
 -15  -4   6 923.664 154.991   5
  15  -4  -6 833.920 153.373   3
 -15  -4   5 1618.69 183.635   7
 -15  -4   5 1551.74 196.340   5
  15  -4  -5 2047.71 230.291   3
 -15  -4   4 757.697 140.782   7
 -15  -4   4 658.469 139.473   5
  15  -4  -4 534.854 140.506   3
 -15  -4   3 941.465 162.784   7
 -15  -4   3 478.749 116.313   5
  15  -4  -3 663.301 144.517   3
 -15  -4   2 527.602 133.238   7
 -15  -4   2 662.854 131.277   5
  15  -4  -2 531.496 145.629   3
 -15  -4   1 1343.10 194.182   7
 -15  -4   1 1286.99 162.308   5
  15  -4  -1 1260.96 194.236   3
 -15  -4   0 945.970 168.101   7
  15  -4   0 1117.39 182.377   3
 -15  -4  -1 470.688 158.469   7
  15  -4   1 288.545 119.711   3
 -15  -4  -2 609.274 185.335   7
  15  -4   2 197.475 107.107   3
  15  -4   3 75.7813 107.561   3
  15  -3 -19 678.967 156.433   3
 -15  -3  18 965.696 185.734   5
  15  -3 -18 503.017 149.580   3
 -15  -3  17 128.019 110.683   5
  15  -3 -17 619.114 143.872   3
 -15  -3  16 472.080 145.520   5
  15  -3 -16 325.543 121.022   3
 -15  -3  15-8.65873 109.583   5
  15  -3 -15-232.562 117.468   3
 -15  -3  14 38.9058 96.6241   5
  15  -3 -14-157.669 120.539   3
  15  -3 -13 2571.72 251.461   3
 -15  -3  13 2240.19 247.033   5
 -15  -3  12 3772.68 308.571   5
  15  -3 -12 4537.36 323.427   3
 -15  -3  11 1441.90 203.536   5
  15  -3 -11 1566.60 196.008   3
 -15  -3  10 946.664 150.964   5
  15  -3 -10 640.956 137.228   3
 -15  -3   9 193.146 98.0122   5
  15  -3  -9 251.739 104.530   3
 -15  -3   8 216.112 69.9674   7
 -15  -3   8 147.380 102.578   5
  15  -3  -8 56.9943 89.7999   3
 -15  -3   7 213.970 70.9169   7
 -15  -3   7 153.393 85.6203   5
  15  -3  -7 234.649 102.792   3
 -15  -3   6 410.280 99.6708   7
 -15  -3   6 195.913 95.2468   5
  15  -3  -6 320.392 124.727   3
 -15  -3   5 778.393 134.378   7
 -15  -3   5 983.560 153.838   5
  15  -3  -5 860.766 150.438   3
 -15  -3   4 1493.20 173.340   7
 -15  -3   4 1493.81 179.457   5
  15  -3  -4 1411.68 182.750   3
 -15  -3   3 3984.53 287.953   7
  15  -3  -3 4073.23 298.456   3
 -15  -3   3 3828.65 266.919   5
 -15  -3   2 2043.93 219.062   7
  15  -3  -2 2634.03 248.106   3
 -15  -3   2 2684.40 226.161   5
 -15  -3   1 222.662 117.237   7
 -15  -3   1 82.9319 77.6660   5
  15  -3  -1 143.828 92.9108   3
  15  -3   0 16.9602 64.7002   2
 -15  -3   0 23.5613 91.3231   7
 -15  -3   0 40.7267 60.9859   5
  15  -3   0 152.299 100.843   3
 -15  -3  -1 310.225 128.231   7
  15  -3   1 347.684 121.006   3
 -15  -3  -2 337.266 138.723   7
  15  -3   2 325.604 112.775   3
 -15  -3  -3 371.452 130.940   7
  15  -3   3 801.549 154.959   3
  15  -3   4 805.086 170.140   1
  15  -2 -20 1112.31 181.181   3
 -15  -2  19 517.811 154.156   5
  15  -2 -19 826.843 158.625   3
 -15  -2  18 248.031 121.292   5
  15  -2 -18 553.188 149.822   3
 -15  -2  17 502.058 156.512   5
  15  -2 -17 345.040 109.212   3
 -15  -2  16 714.419 158.191   5
  15  -2 -16 1004.36 178.014   3
  15  -2 -15 1877.35 216.125   3
 -15  -2  15 1997.18 239.592   5
 -15  -2  14 3135.24 285.065   5
  15  -2 -14 3006.20 259.787   3
  15  -2 -13 1493.85 191.643   3
 -15  -2  13 1475.76 199.778   5
  15  -2 -12 628.233 123.471   3
 -15  -2  12 649.448 144.851   5
  15  -2 -11 360.531 94.8303   3
 -15  -2  11 509.665 126.213   5
  15  -2 -10 739.127 133.467   3
  15  -2 -10 859.474 110.938   7
 -15  -2  10 629.997 137.548   5
  15  -2  -9 852.671 149.330   3
  15  -2  -9 679.553 110.816   7
 -15  -2   9 634.998 134.826   5
  15  -2  -8 193.741 85.3107   3
 -15  -2   8 394.793 107.928   5
 -15  -2   7 377.309 108.032   5
  15  -2  -7 414.969 107.152   3
  15  -2  -6 512.120 87.2655   4
 -15  -2   6 707.421 132.893   5
  15  -2  -6 599.969 128.066   3
 -15  -2   5 723.108 127.429   5
  15  -2  -5 734.099 137.571   3
 -15  -2   4 625.150 125.591   5
  15  -2  -4 479.173 120.255   3
 -15  -2   3 649.142 118.735   5
  15  -2  -3 746.046 142.329   3
 -15  -2   2 1294.45 158.354   5
  15  -2  -2 1410.91 183.195   3
 -15  -2   1 3211.74 228.993   5
  15  -2  -1 2788.87 249.568   3
  15  -2   0 2551.62 213.703   2
 -15  -2   0 2115.84 179.719   5
  15  -2   0 1954.91 211.236   3
  15  -2   1 1386.51 164.344   2
  15  -2   1 1128.88 166.471   3
  15  -2   2 817.055 137.945   2
  15  -2   2 709.497 151.566   1
  15  -2   2 537.685 120.011   3
  15  -2   3 369.416 101.532   1
  15  -2   3 359.160 114.583   3
  15  -2   4 476.141 137.305   1
  15  -1 -20 324.972 132.506   3
 -15  -1  20 94.5280 111.291   5
  15  -1 -19 1274.10 191.751   3
 -15  -1  19 1051.20 195.646   5
  15  -1 -18 2221.51 230.960   3
 -15  -1  18 2387.01 275.645   5
  15  -1 -17 1520.13 203.872   3
 -15  -1  17 986.052 185.629   5
  15  -1 -16 665.508 158.553   3
 -15  -1  16 715.374 150.609   5
  15  -1 -15 309.688 120.403   3
 -15  -1  15 238.369 101.179   5
  15  -1 -14 1243.60 175.061   3
 -15  -1  14 757.412 152.732   5
  15  -1 -13 1215.08 166.749   3
 -15  -1  13 1448.49 196.770   5
  15  -1 -12 609.895 130.574   3
 -15  -1  12 685.646 149.806   5
  15  -1 -11 477.305 116.549   3
  15  -1 -11 540.011 74.8394   7
 -15  -1  11 641.847 140.744   5
  15  -1 -10 1032.88 156.484   3
  15  -1 -10 797.223 92.2315   7
 -15  -1  10 911.167 157.656   5
  15  -1  -9 338.590 98.7807   3
  15  -1  -9 376.371 77.2263   7
 -15  -1   9 412.834 123.298   5
  15  -1  -8 1146.54 156.161   3
  15  -1  -8 793.890 79.9372   4
  15  -1  -8 1091.56 121.760   7
 -15  -1   8 801.870 147.007   5
  15  -1  -7 1014.63 152.827   3
  15  -1  -7 659.741 88.7705   4
 -15  -1   7 996.382 153.950   5
  15  -1  -6 420.360 111.707   3
  15  -1  -6 429.223 82.7761   4
 -15  -1   6 361.669 106.775   5
  15  -1  -5 875.054 145.002   3
  15  -1  -5 656.629 100.052   4
 -15  -1   5 704.468 133.822   5
  15  -1  -4 527.732 111.873   3
 -15  -1   4 476.362 120.320   5
  15  -1  -3 609.978 125.560   3
 -15  -1   3 931.981 140.256   5
 -15  -1   2 1281.31 150.085   5
  15  -1  -2 1366.80 174.797   3
  15  -1  -1 1326.00 166.402   2
 -15  -1   1 1320.30 154.080   5
  15  -1  -1 971.841 149.817   3
  15  -1   0 200.693 77.2107   2
 -15  -1   0 208.192 76.3536   5
  15  -1   0 270.747 92.1463   3
  15  -1   1 707.648 141.704   1
  15  -1   1 924.185 143.502   2
  15  -1   1 692.492 123.864   3
  15  -1   2 1619.65 213.625   1
  15  -1   2 1327.95 171.782   2
  15  -1   2 1002.93 151.448   3
  15  -1   3 2850.23 248.509   2
  15  -1   3 2765.39 278.280   1
  15  -1   3 2343.19 214.780   3
  15  -1   4 1725.76 199.962   2
  15  -1   4 1843.98 228.932   1
  15   0 -20 557.360 157.961   3
 -15   0  20 448.704 158.785   5
  15   0 -19 830.344 162.702   3
 -15   0  19 1283.37 201.831   5
  15   0 -18 971.910 168.644   3
 -15   0  18 680.940 167.231   5
  15   0 -17 780.019 149.785   3
 -15   0  17 917.804 173.209   5
 -15   0  16 3712.54 317.184   5
  15   0 -16 4168.17 308.383   3
  15   0 -15 251.025 117.538   3
 -15   0  15 262.888 119.000   5
  15   0 -14 215.505 91.4424   3
 -15   0  14 197.264 104.431   5
  15   0 -13 302.343 93.6012   3
 -15   0  13 413.011 131.172   5
  15   0 -12 27.2126 72.9669   3
 -15   0  12 94.6818 89.8622   5
  15   0 -11 1477.64 176.405   3
  15   0 -11 1338.24 97.8027   6
 -15   0  11 1659.71 202.290   5
  15   0 -10 1741.81 189.705   3
  15   0 -10 1621.29 118.297   7
  15   0 -10 1779.66 97.7172   6
 -15   0  10 1542.11 197.579   5
  15   0  -9 1641.52 188.301   3
  15   0  -9 1451.19 100.509   4
  15   0  -9 1662.35 127.993   7
  15   0  -9 1640.44 83.5199   6
 -15   0   9 1486.84 184.703   5
  15   0  -8 1220.66 164.125   3
  15   0  -8 983.023 96.7928   4
  15   0  -8 1111.83 117.606   7
  15   0  -8 1081.56 62.3792   6
 -15   0   8 946.142 152.898   5
  15   0  -7 1106.03 157.448   3
  15   0  -7 1135.60 109.813   4
  15   0  -7 1071.31 125.261   7
  15   0  -7 908.189 56.0943   6
 -15   0   7 1037.16 161.631   5
  15   0  -6 1701.32 184.090   3
  15   0  -6 1381.76 127.607   4
  15   0  -6 1228.23 66.4829   6
 -15   0   6 1586.17 184.609   5
  15   0  -5 1653.36 182.160   3
  15   0  -5 1050.83 70.3965   6
 -15   0   5 1672.80 186.463   5
  15   0  -4 1159.79 151.672   3
 -15   0   4 1412.36 164.985   5
  15   0  -3 148.435 86.2283   3
 -15   0   3 114.926 85.6629   5
  15   0  -2 52.1792 75.4470   3
 -15   0   2 169.775 73.8801   5
  15   0  -1 308.251 99.4500   3
  15   0  -1 179.759 81.1189   2
  15   0  -1 324.289 112.136   1
  15   0   0 120.728 73.5951   3
  15   0   0 204.905 99.3560   2
  15   0   0 226.184 90.2049   1
  15   0   1 4203.77 291.832   2
  15   0   1 4731.07 333.455   1
  15   0   1 3741.84 265.072   3
  15   0   2 923.628 168.857   1
  15   0   2 989.922 157.307   2
  15   0   2 918.437 149.391   3
  15   0   3 1432.54 185.938   2
  15   0   3 1158.88 184.173   1
  15   0   4 1167.74 191.878   1
  15   0   4 1370.51 188.269   2
  15   0   5 346.132 114.204   2
  15   0   6 444.519 126.695   2
  15   1 -20 529.193 141.336   3
 -15   1  20-41.6417 140.153   5
  15   1 -19 1490.05 206.289   3
 -15   1  19 1173.47 193.597   5
 -15   1  18 1965.73 239.836   5
  15   1 -18 2805.00 274.752   3
  15   1 -17 1296.68 203.884   3
 -15   1  17 866.389 162.762   5
  15   1 -16 864.919 176.572   3
  15   1 -16 925.292 126.311   6
 -15   1  16 498.953 141.047   5
  15   1 -15 405.281 118.544   3
  15   1 -15 277.293 85.8690   6
 -15   1  15 82.0802 89.7498   5
  15   1 -14 1302.07 173.799   3
  15   1 -14 1441.63 140.798   6
 -15   1  14 1156.43 190.714   5
  15   1 -13 1383.79 180.738   3
  15   1 -13 1562.14 141.552   6
 -15   1  13 1741.37 212.857   5
  15   1 -12 670.370 141.661   3
  15   1 -12 717.899 94.5342   6
 -15   1  12 577.405 128.171   5
  15   1 -11 375.183 108.250   3
  15   1 -11 506.978 77.8032   6
 -15   1  11 210.283 98.4367   5
  15   1 -10 834.641 152.460   3
  15   1 -10 748.306 87.3827   7
  15   1 -10 888.283 94.8941   6
 -15   1  10 720.134 145.037   5
  15   1  -9 367.468 98.6747   3
  15   1  -9 376.054 68.4679   4
  15   1  -9 428.153 78.1810   7
  15   1  -9 430.267 69.3231   6
 -15   1   9 205.459 102.697   5
  15   1  -8 1022.44 148.579   3
  15   1  -8 816.174 95.1602   4
  15   1  -8 749.106 100.110   7
  15   1  -8 1081.51 96.7778   6
 -15   1   8 1012.45 158.910   5
  15   1  -7 1065.29 157.573   3
  15   1  -7 846.155 105.656   4
  15   1  -7 1038.09 125.188   7
  15   1  -7 753.600 80.6652   6
 -15   1   7 853.370 153.909   5
  15   1  -6 369.429 104.064   3
  15   1  -6 384.738 88.7336   4
 -15   1   6 475.594 113.580   5
  15   1  -5 704.201 129.923   3
 -15   1   5 913.408 153.253   5
  15   1  -4 594.279 123.055   3
  15   1  -3 622.368 120.459   3
  15   1  -3 753.374 134.101   1
  15   1  -2 1279.86 162.602   3
  15   1  -2 1079.96 159.856   2
  15   1  -2 1326.41 175.534   1
  15   1  -1 1224.35 160.636   3
  15   1  -1 1254.81 173.730   2
  15   1  -1 1358.86 191.648   1
  15   1   0 131.326 70.5778   3
  15   1   0 212.545 108.047   1
  15   1   0 172.255 88.6633   2
  15   1   1 716.938 125.275   3
  15   1   1 1042.68 171.300   2
  15   1   1 648.099 146.312   1
  15   1   2 934.981 136.588   3
  15   1   2 1195.74 184.347   1
  15   1   2 1460.55 194.309   2
  15   1   3 2585.59 252.994   2
  15   1   3 2933.90 286.082   1
  15   1   4 1722.14 225.939   2
  15   1   4 1640.11 231.513   1
  15   1   5 559.469 143.759   2
  15   1   6 277.453 146.697   2
  15   2 -21 1110.26 174.686   3
  15   2 -20 1172.49 182.803   3
  15   2 -19 671.248 168.982   3
  15   2 -19 557.622 133.473   6
  15   2 -18 397.007 174.547   3
  15   2 -18 433.543 116.852   6
  15   2 -17 799.815 175.169   3
  15   2 -17 565.963 114.659   6
  15   2 -16 1084.11 149.037   6
 -15   2  16 1260.84 200.617   5
  15   2 -15 2290.63 199.829   6
 -15   2  15 2017.45 233.620   5
  15   2 -14 3507.37 231.555   6
 -15   2  14 2997.79 289.529   5
  15   2 -13 1589.21 154.201   6
 -15   2  13 1165.09 187.477   5
  15   2 -12 738.294 109.618   6
 -15   2  12 651.152 144.917   5
  15   2 -11 488.193 90.0675   6
 -15   2  11 401.650 122.042   5
  15   2 -10 734.480 104.966   6
  15   2  -9 522.585 89.7000   4
  15   2  -9 675.327 94.1379   6
  15   2  -8 389.764 89.5047   4
  15   2  -8 298.325 89.1692   7
  15   2  -8 343.975 79.0730   6
  15   2  -7 381.700 93.5030   7
  15   2  -7 375.677 81.0011   6
  15   2  -6 654.130 130.763   1
  15   2  -5 717.200 132.553   1
  15   2  -4 179.130 85.3273   3
  15   2  -4 551.160 122.286   1
  15   2  -3 556.162 126.577   3
 -15   2   3 537.634 110.216   4
  15   2  -3 758.152 141.825   1
  15   2  -3 487.405 127.699   2
  15   2  -2 1600.59 184.847   3
 -15   2   2 1228.39 157.809   4
  15   2  -2 1482.23 190.487   2
  15   2  -2 1293.31 176.327   1
 -15   2   1 2991.24 243.157   4
  15   2  -1 3293.60 282.264   2
  15   2  -1 3046.41 267.063   1
  15   2  -1 3233.32 249.120   3
 -15   2   0 1920.02 211.912   4
  15   2   0 2473.80 247.191   2
  15   2   0 2395.75 237.751   1
  15   2   0 2214.45 207.492   3
  15   2   1 1057.94 157.906   3
  15   2   1 1089.06 183.548   1
 -15   2  -1 912.409 178.116   4
  15   2   1 1047.46 177.063   2
  15   2   2 673.377 117.676   3
 -15   2  -2 572.002 177.080   4
  15   2   2 630.592 145.337   2
  15   2   2 726.183 166.362   1
 -15   2  -3 440.077 140.677   4
  15   2   3 563.011 141.721   2
  15   2   3 571.594 155.581   1
 -15   2  -4 318.833 142.153   4
  15   2   4 370.307 130.938   2
  15   2   5 1494.14 224.658   2
  15   3 -20 1214.89 198.136   6
  15   3 -19 949.402 171.369   6
  15   3 -18 659.248 152.513   6
  15   3 -17 546.931 129.544   6
  15   3 -16 438.153 117.140   6
  15   3 -15 104.454 86.6233   6
  15   3 -14 289.407 94.4734   6
  15   3 -13 2814.94 217.319   6
  15   3 -13 2682.31 186.313   1
  15   3 -12 4131.30 260.696   6
  15   3 -12 4000.87 227.634   1
  15   3 -11 1667.87 164.048   6
  15   3 -11 1900.22 165.681   1
  15   3 -10 799.257 117.250   1
  15   3 -10 873.393 123.543   6
  15   3  -9 315.898 91.1599   6
  15   3  -9 329.162 83.0554   1
  15   3  -8 271.730 98.3803   1
  15   3  -8 360.571 96.0019   6
  15   3  -7 411.558 104.110   1
 -15   3   6 199.404 61.3895   4
  15   3  -6 250.555 98.7512   1
 -15   3   5 686.409 99.6326   4
  15   3  -5 909.956 143.027   1
 -15   3   4 1151.92 137.384   4
  15   3  -4 1860.91 214.404   2
  15   3  -4 1811.85 199.046   1
 -15   3   3 3881.45 255.458   4
  15   3  -3 4526.05 317.993   2
  15   3  -3 4078.21 301.740   1
 -15   3   2 2494.77 214.133   4
  15   3  -2 2736.20 255.541   2
  15   3  -2 2280.31 230.312   1
  15   3  -1 290.379 103.679   3
 -15   3   1 171.505 87.7281   4
  15   3  -1 208.105 107.080   2
  15   3  -1 199.279 105.169   1
  15   3   0 195.561 81.5865   3
 -15   3   0 153.592 105.964   4
  15   3   0 130.870 97.5198   2
  15   3   0 223.458 102.807   1
  15   3   1 342.211 95.0541   3
 -15   3  -1 110.788 113.371   4
  15   3   1 325.861 147.841   2
  15   3   1 441.305 133.722   1
 -15   3  -2 278.883 131.794   4
  15   3   2 588.674 154.401   2
  15   3   2 280.118 117.236   1
 -15   3  -3 543.146 151.376   4
  15   3   3 561.779 164.805   2
 -15   3  -4 954.718 203.426   4
  15   4 -19 767.580 177.384   6
  15   4 -18-5.89909 89.0186   6
  15   4 -17 363.291 118.321   6
  15   4 -16 315.197 104.771   6
  15   4 -15 859.970 148.600   6
  15   4 -14 1687.47 192.234   6
  15   4 -13 679.418 125.673   6
  15   4 -12 819.061 114.638   1
  15   4 -12 780.742 133.736   6
  15   4 -11 892.366 124.982   1
  15   4 -11 874.092 140.218   6
  15   4 -10 1829.01 174.352   1
  15   4 -10 1538.21 174.186   6
  15   4  -9 1012.13 135.529   1
  15   4  -9 1171.01 155.178   6
  15   4  -8 156.719 84.9669   1
 -15   4   7 183.278 60.9937   4
  15   4  -7 231.695 85.9309   1
 -15   4   6 957.244 117.469   4
  15   4  -6 797.097 157.341   2
  15   4  -6 766.916 129.035   1
 -15   4   5 1591.10 155.162   4
  15   4  -5 1790.16 217.564   2
  15   4  -5 1736.32 190.564   1
 -15   4   4 404.712 97.2485   4
  15   4  -4 655.380 149.663   2
 -15   4   3 838.288 136.586   4
  15   4  -3 748.398 150.677   2
  15   4  -3 836.704 156.388   1
 -15   4   2 678.678 144.183   4
  15   4  -2 548.268 132.348   2
  15   4  -2 531.048 146.411   1
 -15   4   1 1050.24 171.320   4
  15   4  -1 1557.99 203.679   2
  15   4  -1 1624.21 213.142   1
 -15   4   0 853.969 166.468   4
  15   4   0 831.589 182.993   1
  15   4   0 993.919 167.865   2
 -15   4  -1 366.449 157.489   4
  15   4   1 753.458 180.495   1
  15   4   1 942.651 178.858   2
 -15   4  -2 277.409 130.005   4
 -15   4  -3 12.8379 107.472   4
  15   5 -17 737.349 164.513   6
  15   5 -16 250.554 105.619   6
  15   5 -15-52.4243 95.4389   6
  15   5 -14 791.267 145.342   6
  15   5 -13 1059.95 170.198   6
  15   5 -12 1068.82 160.133   6
  15   5 -11 611.047 126.560   6
  15   5 -10 678.910 126.389   1
  15   5 -10 732.846 141.022   6
  15   5  -9 472.597 147.495   2
  15   5  -9 422.781 102.251   1
  15   5  -9 322.491 99.4720   6
  15   5  -8 581.970 155.956   2
  15   5  -8 577.744 123.942   1
  15   5  -7 628.271 138.365   2
  15   5  -7 720.052 136.736   1
  15   5  -6 399.571 116.038   1
  15   5  -6 382.369 111.222   2
 -15   5   5 677.114 120.179   4
  15   5  -5 797.509 148.496   1
  15   5  -5 783.966 165.836   2
 -15   5   4 717.844 125.327   4
  15   5  -4 855.786 153.582   1
  15   5  -4 665.119 146.483   2
  15   5  -3 834.913 157.438   1
 -15   5   3 985.716 149.832   4
  15   5  -3 962.597 174.293   2
  15   5  -2 1040.98 186.882   1
 -15   5   2 794.724 149.633   4
  15   5  -2 1064.21 182.428   2
  15   5  -1 852.632 174.136   1
 -15   5   1 639.886 153.064   4
  15   5  -1 906.785 196.359   2
  15   5   0-266.320 163.491   1
 -15   5   0 22.9589 110.459   4
 -15   5  -1 318.852 150.941   4
 -15   5  -2 277.496 131.560   4
  15   6 -14 573.004 134.296   6
  15   6 -13-87.8398 98.1257   6
  15   6 -12 564.994 169.836   2
  15   6 -12 228.756 114.343   6
  15   6 -11 316.170 132.884   2
  15   6 -11 165.355 118.535   6
  15   6 -10 537.304 145.121   2
  15   6 -10 538.156 136.843   6
  15   6  -9 988.947 177.859   2
  15   6  -9 931.074 169.106   6
  15   6  -8 1172.22 191.215   2
  15   6  -8 860.753 144.717   1
  15   6  -7 482.275 133.084   2
  15   6  -7 535.220 137.931   1
  15   6  -6 1107.51 187.727   2
  15   6  -6 797.715 158.609   1
  15   6  -5 349.751 145.243   2
  15   6  -5 246.881 123.144   1
  15   6  -4 141.713 105.950   2
  15   6  -4 185.978 111.953   1
 -15   6   3 463.710 122.238   4
  15   6  -3 487.120 172.112   2
  15   6  -3 198.801 115.932   1
 -15   6   2-269.579 144.957   4
  15   6  -2-33.7899 128.268   1
 -15   6   1 600.889 156.993   4
  15   6  -1 569.170 160.163   1
 -15   6   0 461.138 147.369   4
  15   7 -13 628.626 162.338   2
  15   7 -12 599.885 157.849   2
  15   7 -11 354.595 137.485   2
  15   7 -10 93.9714 112.318   2
  15   7  -9 291.098 128.257   2
  15   7  -9 179.077 118.747   6
  15   7  -8 258.433 104.380   2
  15   7  -8-91.5616 108.457   6
  15   7  -7 58.0787 109.255   2
 -16  -7   5 1272.76 217.292   7
 -16  -6   9 1702.30 242.233   5
 -16  -6   8 1607.08 237.178   5
 -16  -6   7 1638.61 236.159   5
 -16  -6   6 45.0205 88.3727   7
 -16  -6   6 348.084 144.703   5
 -16  -6   5-118.899 106.880   7
 -16  -6   5 431.084 152.457   5
 -16  -6   4 288.081 139.166   7
 -16  -6   4 221.544 122.746   5
 -16  -6   3 887.813 184.459   7
 -16  -6   3 1008.34 173.719   5
 -16  -6   2 425.179 144.321   7
  16  -5 -15 330.929 125.127   3
  16  -5 -14-115.163 117.745   3
 -16  -5  13 477.457 150.195   5
  16  -5 -13 547.701 149.004   3
 -16  -5  12 874.673 187.863   5
  16  -5 -12 1225.01 201.336   3
 -16  -5  11 1217.38 206.188   5
  16  -5 -11 1247.46 196.605   3
 -16  -5  10 1612.38 234.219   5
  16  -5 -10 1603.24 221.116   3
  16  -5  -9 654.600 164.048   3
 -16  -5   9 618.311 160.759   5
  16  -5  -8 314.218 118.303   3
 -16  -5   8 406.274 130.720   5
 -16  -5   7 546.352 128.626   7
  16  -5  -7 606.032 161.514   3
 -16  -5   7 554.066 141.369   5
 -16  -5   6 1384.75 182.203   7
  16  -5  -6 1446.59 221.159   3
 -16  -5   6 1941.41 265.372   5
 -16  -5   5 1202.14 180.069   7
  16  -5  -5 1311.26 209.258   3
 -16  -5   5 1582.56 222.233   5
 -16  -5   4 1133.79 178.298   7
  16  -5  -4 1274.86 212.806   3
 -16  -5   4 1279.31 211.757   5
 -16  -5   3 568.022 149.391   7
  16  -5  -3 563.186 162.557   3
 -16  -5   3 691.357 156.755   5
 -16  -5   2-43.0548 111.752   7
 -16  -5   2 77.4165 86.5291   5
 -16  -5   1 249.511 131.555   7
  16  -5  -1 315.823 132.132   3
  16  -5   0 353.351 152.473   3
  16  -5   1 787.745 186.197   3
  16  -4 -19 436.337 136.594   3
  16  -4 -18-59.5106 125.522   3
  16  -4 -17 105.897 95.9159   3
  16  -4 -16 222.595 136.522   3
 -16  -4  15 319.181 148.289   5
  16  -4 -15 548.247 142.612   3
 -16  -4  14 1322.89 218.668   5
  16  -4 -14 1501.35 219.419   3
 -16  -4  13 1099.19 188.110   5
  16  -4 -13 1126.07 178.711   3
 -16  -4  12 615.344 155.040   5
  16  -4 -12 757.453 165.827   3
 -16  -4  11 671.734 159.301   5
  16  -4 -11 829.438 156.403   3
 -16  -4  10 1523.04 215.590   5
  16  -4 -10 1495.75 206.039   3
 -16  -4   9 1570.47 214.730   5
  16  -4  -9 1502.85 209.131   3
 -16  -4   8 1052.45 135.760   7
 -16  -4   8 1100.29 191.029   5
  16  -4  -8 1061.06 171.628   3
 -16  -4   7 1032.58 147.809   7
 -16  -4   7 1296.88 198.269   5
  16  -4  -7 1530.59 210.420   3
 -16  -4   6 1249.29 169.801   7
 -16  -4   6 1342.45 200.677   5
  16  -4  -6 1451.63 210.393   3
 -16  -4   5 519.887 124.023   7
 -16  -4   5 668.030 149.775   5
  16  -4  -5 748.965 167.293   3
 -16  -4   4 770.173 147.587   7
 -16  -4   4 822.204 151.691   5
  16  -4  -4 589.217 147.824   3
 -16  -4   3 994.790 164.307   7
 -16  -4   3 1148.10 179.041   5
  16  -4  -3 1375.34 208.148   3
 -16  -4   2 974.800 169.997   7
 -16  -4   2 1165.70 162.042   5
  16  -4  -2 1353.23 203.066   3
 -16  -4   1 329.441 121.578   7
  16  -4  -1 529.107 142.333   3
 -16  -4   0 98.3628 109.987   7
  16  -4   0 574.774 138.672   3
 -16  -4  -1 92.8125 116.569   7
  16  -4   1 153.133 98.3174   3
  16  -4   2 133.618 117.103   3
  16  -3 -20 267.519 135.128   3
  16  -3 -19-5.88317 107.175   3
  16  -3 -18 445.458 139.825   3
 -16  -3  17 580.270 176.166   5
  16  -3 -17 400.466 132.490   3
 -16  -3  16 1225.30 203.581   5
  16  -3 -16 1079.47 178.653   3
 -16  -3  15 455.702 152.682   5
  16  -3 -15 297.825 117.069   3
 -16  -3  14 85.1940 102.587   5
  16  -3 -14-64.9530 100.471   3
 -16  -3  13 702.401 160.408   5
  16  -3 -13 1048.96 178.309   3
 -16  -3  12 2501.50 267.412   5
  16  -3 -12 2389.89 246.197   3
 -16  -3  11 2539.64 265.327   5
  16  -3 -11 2718.10 257.933   3
 -16  -3  10 1300.80 194.081   5
  16  -3 -10 1305.08 191.903   3
 -16  -3   9 885.196 167.197   5
  16  -3  -9 1579.35 215.163   3
 -16  -3   8 139.204 108.714   5
  16  -3  -8 279.906 108.302   3
 -16  -3   7 1391.23 161.114   7
 -16  -3   7 1324.08 183.890   5
  16  -3  -7 1569.65 205.991   3
 -16  -3   6 1366.83 168.570   7
 -16  -3   6 1291.66 183.796   5
  16  -3  -6 1246.72 185.314   3
 -16  -3   5 2278.13 214.062   7
 -16  -3   5 2618.10 235.241   5
  16  -3  -5 2589.06 252.091   3
 -16  -3   4 1856.93 201.450   7
  16  -3  -4 2244.15 242.866   3
 -16  -3   4 1612.93 193.989   5
 -16  -3   3 953.917 171.659   7
 -16  -3   3 1236.24 168.871   5
  16  -3  -3 873.496 151.968   3
 -16  -3   2-103.224 98.1192   7
 -16  -3   2-6.20522 70.9814   5
  16  -3  -2 89.2364 97.5737   3
 -16  -3   1 319.511 116.692   7
 -16  -3   1 309.123 103.849   5
  16  -3  -1 256.969 100.450   3
 -16  -3   0 1399.78 198.496   7
  16  -3   0 1487.00 202.818   3
 -16  -3  -1 491.224 155.285   7
  16  -3   1 609.656 160.559   3
  16  -3   2 364.891 118.680   3
  16  -2 -20 343.953 121.535   3
  16  -2 -19 764.750 156.177   3
 -16  -2  18 96.9008 109.091   5
  16  -2 -18 115.073 140.505   3
 -16  -2  17-49.2699 112.409   5
  16  -2 -17-38.5498 126.627   3
 -16  -2  16 514.599 151.786   5
  16  -2 -16 445.550 130.144   3
  16  -2 -15 1198.03 184.306   3
 -16  -2  15 1064.43 186.602   5
 -16  -2  14 2448.30 265.208   5
  16  -2 -14 2739.70 255.991   3
  16  -2 -13 2024.53 219.824   3
 -16  -2  13 2280.59 251.237   5
  16  -2 -12 967.216 159.963   3
 -16  -2  12 1022.76 182.538   5
  16  -2 -11 1764.72 203.319   3
 -16  -2  11 1562.65 205.520   5
  16  -2 -10 1351.94 186.402   3
 -16  -2  10 1199.92 182.294   5
 -16  -2   9 2761.64 248.295   5
  16  -2  -9 2936.80 259.449   3
 -16  -2   8 2874.99 255.358   5
  16  -2  -8 2956.13 260.393   3
 -16  -2   7 2755.83 247.044   5
  16  -2  -7 2859.95 252.663   3
 -16  -2   6 1350.12 182.919   5
  16  -2  -6 1731.72 200.902   3
 -16  -2   5 1742.54 204.995   5
  16  -2  -5 1564.65 193.524   3
 -16  -2   4 713.801 139.623   5
  16  -2  -4 780.626 150.049   3
 -16  -2   3 2068.79 208.057   5
  16  -2  -3 2225.06 237.078   3
 -16  -2   2 2769.08 223.610   5
  16  -2  -2 2733.29 254.286   3
  16  -2  -1 972.556 138.727   2
 -16  -2   1 973.925 142.314   5
  16  -2  -1 935.349 156.235   3
  16  -2   0 475.673 115.743   2
  16  -2   0 466.961 120.578   3
  16  -2   1 210.521 91.1275   2
  16  -2   1 131.597 90.1489   3
  16  -2   2 126.879 92.7644   1
  16  -2   2 35.1669 100.240   3
  16  -1 -20 208.302 131.464   3
  16  -1 -19 426.264 111.891   3
 -16  -1  19 339.973 155.208   5
  16  -1 -18 504.936 161.765   3
 -16  -1  18 595.767 157.030   5
  16  -1 -17 2258.36 255.130   3
 -16  -1  17 1973.61 246.217   5
  16  -1 -16 1640.20 211.913   3
 -16  -1  16 1528.49 222.786   5
  16  -1 -15 800.326 152.824   3
 -16  -1  15 807.908 173.555   5
  16  -1 -14 562.461 140.691   3
 -16  -1  14 556.452 164.221   5
  16  -1 -13 1678.48 201.398   3
 -16  -1  13 1578.90 204.414   5
  16  -1 -12 1308.34 180.866   3
 -16  -1  12 1346.91 187.759   5
 -16  -1  11 4353.31 323.335   5
  16  -1 -11 4176.09 301.992   3
 -16  -1  10 4080.20 309.086   5
  16  -1 -10 4678.34 312.508   3
  16  -1  -9 1730.66 195.241   3
  16  -1  -9 1877.53 156.849   7
 -16  -1   9 1848.73 209.853   5
  16  -1  -8 233.659 102.013   3
 -16  -1   8 399.243 122.875   5
 -16  -1   7 2125.03 218.986   5
  16  -1  -7 2229.82 226.539   3
 -16  -1   6 4195.92 294.613   5
  16  -1  -6 4108.39 294.478   3
 -16  -1   5 4770.29 306.987   5
  16  -1  -5 4739.90 310.926   3
  16  -1  -4 1680.21 198.617   3
 -16  -1   4 1437.55 177.558   5
  16  -1  -3 1914.77 206.224   3
 -16  -1   3 2118.16 202.257   5
 -16  -1   2 559.378 118.656   5
  16  -1  -2 403.106 107.050   3
  16  -1  -1 751.811 140.181   2
 -16  -1   1 656.297 120.955   5
  16  -1  -1 696.753 137.062   3
  16  -1   0 2030.69 208.115   2
  16  -1   0 1847.23 218.939   1
  16  -1   0 1874.20 209.696   3
  16  -1   1 2643.87 237.261   2
  16  -1   1 2362.91 251.407   1
  16  -1   1 1696.61 200.033   3
  16  -1   2 743.368 143.214   2
  16  -1   2 929.273 173.972   1
  16  -1   2 796.561 150.147   3
  16  -1   3 599.243 121.811   2
  16   0 -21 227.650 98.7197   3
  16   0 -20 429.967 127.253   3
  16   0 -19 668.885 151.357   3
 -16   0  19 155.013 121.691   5
  16   0 -18 1031.01 198.827   3
 -16   0  18 853.414 179.924   5
  16   0 -17-27.8380 137.887   3
 -16   0  17-28.0168 119.280   5
  16   0 -16 676.093 131.125   3
 -16   0  16 633.698 149.182   5
 -16   0  15 4592.29 352.258   5
  16   0 -15 4191.68 315.897   3
  16   0 -14 372.371 109.636   3
 -16   0  14 428.723 138.479   5
 -16   0  13 2185.71 246.554   5
  16   0 -13 2602.08 248.849   3
  16   0 -12 1449.15 188.593   3
 -16   0  12 1343.12 197.892   5
  16   0 -11 104.829 89.5718   3
 -16   0  11-6.16415 98.4136   5
  16   0 -10 1137.05 169.658   3
 -16   0  10 1398.01 187.339   5
  16   0  -9 4345.36 225.743   7
 -16   0   9 4224.86 309.800   5
  16   0  -9 4486.91 302.147   3
  16   0  -8 3129.67 208.160   7
 -16   0   8 3197.58 267.124   5
  16   0  -8 3554.56 271.406   3
 -16   0   7 4840.80 316.965   5
  16   0  -7 4688.82 307.906   3
  16   0  -6 859.585 144.201   3
 -16   0   6 1436.21 186.085   5
  16   0  -5 68.9938 72.7103   3
 -16   0   5-23.1073 79.6692   5
  16   0  -4 1477.21 184.781   3
 -16   0   4 1252.75 165.097   5
 -16   0   3 2237.12 205.193   5
  16   0  -3 2207.73 216.270   3
  16   0  -2 461.892 106.438   3
  16   0  -2 645.443 133.712   2
  16   0  -1 4409.85 303.634   2
  16   0  -1 4293.02 319.991   1
  16   0  -1 4140.56 289.631   3
  16   0   0 849.194 174.578   1
  16   0   0 887.932 150.968   2
  16   0   0 720.241 143.563   3
  16   0   1 188.562 122.778   1
  16   0   1 168.484 89.3953   2
  16   0   1 54.9130 74.0064   3
  16   0   2 1388.13 188.237   2
  16   0   2 1111.14 189.490   1
  16   0   2 1040.97 157.656   3
  16   0   3 479.610 131.893   2
  16   0   4 865.207 169.667   2
  16   0   5 206.543 113.516   2
  16   1 -21 457.551 124.340   3
  16   1 -20 405.940 123.933   3
  16   1 -19 440.565 142.007   3
 -16   1  19 321.913 144.273   5
  16   1 -18 690.722 157.564   3
 -16   1  18 428.153 153.863   5
  16   1 -17 2120.69 245.756   3
 -16   1  17 1739.67 237.018   5
  16   1 -16 1791.69 231.705   3
  16   1 -16 1931.32 176.268   6
 -16   1  16 1573.25 226.959   5
  16   1 -15 851.152 161.900   3
  16   1 -15 792.712 113.416   6
 -16   1  15 782.869 179.353   5
  16   1 -14 594.046 143.068   3
  16   1 -14 563.812 94.9472   6
 -16   1  14 431.896 142.747   5
  16   1 -13 2061.96 150.547   6
 -16   1  13 2327.48 242.726   5
  16   1 -13 2151.96 226.549   3
  16   1 -12 1588.35 191.366   3
  16   1 -12 1968.37 141.267   6
 -16   1  12 1634.96 211.316   5
  16   1 -11 5284.22 215.278   6
 -16   1  11 5313.04 355.285   5
  16   1 -11 4940.32 327.047   3
  16   1 -10 4739.58 196.353   6
 -16   1  10 3970.77 308.595   5
  16   1 -10 4209.11 307.081   3
  16   1  -9 1864.62 205.350   3
  16   1  -9 1917.68 126.060   6
 -16   1   9 2128.85 226.587   5
  16   1  -8 125.390 93.4652   3
  16   1  -8 187.613 76.5636   7
  16   1  -8 211.492 53.3923   6
 -16   1   8 332.069 116.373   5
  16   1  -7 1793.94 202.766   3
  16   1  -7 1763.64 122.915   6
 -16   1   7 1883.07 213.656   5
 -16   1   6 3912.90 284.360   5
  16   1  -6 3458.66 269.363   3
  16   1  -5 4331.21 302.261   3
  16   1  -4 1536.51 188.563   3
  16   1  -4 1669.59 197.010   1
  16   1  -3 1754.17 201.881   1
  16   1  -3 1601.60 187.340   3
  16   1  -2 577.023 132.768   1
  16   1  -2 345.798 104.758   3
  16   1  -2 565.811 137.013   2
  16   1  -1 565.916 126.481   3
  16   1  -1 994.516 168.523   2
  16   1  -1 758.553 142.870   1
  16   1   0 1569.43 182.955   3
  16   1   0 1868.89 216.485   2
  16   1   0 2105.04 234.116   1
  16   1   1 1665.00 187.084   3
  16   1   1 2407.95 247.378   2
  16   1   1 2287.53 256.947   1
  16   1   2 859.383 174.683   1
  16   1   2 981.062 169.704   2
  16   1   3 511.429 134.907   2
  16   1   4 247.910 117.802   2
  16   1   5 558.375 143.934   2
  16   2 -20 601.554 153.214   3
  16   2 -19 1017.15 184.039   3
  16   2 -19 1167.61 170.865   6
  16   2 -18 184.674 99.9509   3
  16   2 -18 146.392 84.4810   6
  16   2 -17 14.6218 96.3618   3
  16   2 -17 257.989 93.9880   6
  16   2 -16 414.571 130.455   3
  16   2 -16 679.827 125.772   6
  16   2 -15 1385.43 154.258   6
 -16   2  15 959.674 168.908   5
  16   2 -14 2916.17 207.018   6
 -16   2  14 2365.95 259.065   5
  16   2 -13 2043.79 171.408   6
 -16   2  13 1754.15 222.365   5
  16   2 -12 1048.02 126.081   6
  16   2 -11 1508.11 140.565   6
  16   2 -10 1368.58 133.049   6
  16   2  -9 2853.61 183.358   6
  16   2  -8 3011.92 188.611   6
  16   2  -7 2607.52 176.947   6
  16   2  -7 2895.89 239.491   1
  16   2  -6 1241.29 170.428   3
  16   2  -6 1290.94 169.349   1
  16   2  -5 1359.97 181.041   3
  16   2  -5 2132.71 217.945   1
  16   2  -4 908.752 153.209   3
  16   2  -4 1080.31 174.632   2
  16   2  -4 1250.35 178.693   1
  16   2  -3 2086.12 210.146   3
  16   2  -3 2432.53 243.231   2
  16   2  -3 2366.67 237.499   1
  16   2  -2 2962.13 269.088   2
  16   2  -2 2394.39 248.538   1
  16   2  -2 2503.90 233.728   3
  16   2  -1 1048.26 163.665   3
  16   2  -1 1137.77 181.924   2
  16   2  -1 1082.97 192.188   1
  16   2   0 540.382 121.942   3
 -16   2   0 420.944 130.592   4
  16   2   0 566.313 154.893   1
  16   2   0 633.815 144.754   2
  16   2   1 142.989 104.683   1
  16   2   1 54.3356 77.6480   3
 -16   2  -1 314.022 167.231   4
  16   2   1 356.466 147.170   2
 -16   2  -2-381.323 150.367   4
  16   2   2 258.550 111.907   2
 -16   2  -3 767.259 175.523   4
  16   2   3 1383.90 212.291   2
  16   3 -20 128.624 109.277   6
  16   3 -19 304.891 128.807   6
  16   3 -18 439.693 110.069   6
  16   3 -17 1018.70 173.669   6
  16   3 -16 1579.34 188.218   6
  16   3 -15 579.340 114.693   6
  16   3 -14 172.315 85.9383   6
  16   3 -13 882.327 129.031   1
  16   3 -13 1071.51 147.216   6
  16   3 -12 2169.37 190.209   6
  16   3 -12 2272.71 185.723   1
  16   3 -11 2842.23 205.639   6
  16   3 -11 2377.22 193.554   1
  16   3 -10 1362.70 147.968   6
  16   3 -10 1418.28 159.207   1
  16   3  -9 1425.59 159.656   1
  16   3  -9 1554.36 155.717   6
  16   3  -8 317.771 92.2381   1
  16   3  -8 318.043 91.8754   6
  16   3  -7 1519.03 181.153   1
 -16   3   6 1415.90 137.407   4
  16   3  -6 1565.91 186.611   1
 -16   3   5 2465.96 190.331   4
  16   3  -5 3214.82 284.076   2
  16   3  -5 3191.81 261.662   1
  16   3  -4 2367.72 241.694   2
 -16   3   4 1846.14 177.741   4
  16   3  -4 2407.07 238.650   1
 -16   3   3 909.728 136.843   4
  16   3  -3 1016.27 166.906   1
  16   3  -3 1036.40 174.060   2
  16   3  -2-119.747 97.0915   1
  16   3  -2-5.43439 76.1806   3
 -16   3   2 132.085 106.592   4
  16   3  -2 56.1359 96.9783   2
  16   3  -1 319.740 110.067   3
 -16   3   1 381.079 125.893   4
  16   3  -1 485.890 144.419   2
  16   3  -1 258.970 113.942   1
  16   3   0 975.677 156.600   3
 -16   3   0 829.533 171.794   4
  16   3   0 1607.84 216.655   2
  16   3   0 1217.05 192.086   1
  16   3   1 585.679 123.329   3
 -16   3  -1 882.333 206.845   4
  16   3   1 815.529 183.122   2
  16   3   1 822.908 174.922   1
 -16   3  -2 575.935 153.930   4
  16   4 -19 1024.20 187.434   6
  16   4 -18 403.395 122.245   6
  16   4 -17 111.866 93.0223   6
  16   4 -16 315.863 107.494   6
  16   4 -15 540.607 124.019   6
  16   4 -14 1111.30 161.833   6
  16   4 -13 1012.95 148.071   6
  16   4 -12 786.264 136.245   6
  16   4 -11 608.872 112.384   1
  16   4 -11 709.800 128.545   6
  16   4 -10 1497.17 164.246   1
  16   4 -10 1092.10 159.340   6
  16   4  -9 1383.22 166.061   1
  16   4  -9 1539.94 174.659   6
  16   4  -8 1182.08 160.401   1
  16   4  -8 714.583 123.965   6
  16   4  -7 1561.43 206.052   2
  16   4  -7 1402.98 176.997   1
 -16   4   6 870.477 116.829   4
  16   4  -6 1677.26 207.463   2
  16   4  -6 1437.84 179.095   1
 -16   4   5 521.425 105.123   4
  16   4  -5 714.347 155.020   2
  16   4  -5 829.338 152.655   1
 -16   4   4 609.453 108.842   4
  16   4  -4 817.656 148.935   2
  16   4  -4 800.923 151.981   1
 -16   4   3 1086.63 156.386   4
  16   4  -3 1323.42 202.060   2
  16   4  -3 1321.60 194.989   1
 -16   4   2 1008.41 164.207   4
  16   4  -2 1112.64 187.361   2
  16   4  -2 1141.74 193.294   1
 -16   4   1 392.148 132.789   4
  16   4  -1 756.669 170.798   2
  16   4  -1 405.363 133.424   1
  16   4   0 119.400 92.9095   3
 -16   4   0 376.484 140.856   4
  16   4   0 244.658 134.790   1
 -16   4  -1-29.7269 110.302   4
 -16   4  -2 253.508 141.316   4
  16   5 -17 736.953 142.124   6
  16   5 -16 476.063 138.342   6
  16   5 -15 569.410 141.414   6
  16   5 -14 86.8694 98.1389   6
  16   5 -13 592.797 133.211   6
  16   5 -12 1117.46 172.908   6
  16   5 -11 1101.47 165.101   6
  16   5 -10 1826.29 184.209   1
  16   5 -10 1847.15 213.398   6
  16   5  -9 772.113 159.774   2
  16   5  -9 771.180 137.519   1
  16   5  -9 805.189 147.889   6
  16   5  -8 427.836 120.947   2
  16   5  -8 460.485 120.170   1
  16   5  -7 732.374 160.868   2
  16   5  -7 539.574 121.060   1
  16   5  -6 1962.74 231.259   2
  16   5  -6 1512.81 198.953   1
  16   5  -5 1281.14 180.358   1
  16   5  -5 1481.24 210.446   2
 -16   5   4 974.984 147.169   4
  16   5  -4 1262.75 194.999   1
  16   5  -4 1085.67 185.258   2
  16   5  -3 460.449 133.979   1
 -16   5   3 584.433 122.157   4
  16   5  -3 552.222 150.379   2
  16   5  -2 141.067 118.109   1
 -16   5   2 41.5255 100.329   4
 -16   5   1 350.962 136.397   4
 -16   5   0 168.575 129.347   4
 -16   5  -1 619.364 163.919   4
  16   6 -14 740.783 166.751   6
  16   6 -13 1451.60 213.888   2
  16   6 -13 1340.70 197.808   6
  16   6 -12 195.408 103.699   2
  16   6 -12 387.167 141.507   6
  16   6 -11 96.4710 125.468   2
  16   6 -11 79.1851 94.1062   6
  16   6 -10 15.4734 107.765   2
  16   6 -10 247.584 108.580   6
  16   6  -9 1952.63 244.239   2
  16   6  -9 1810.38 225.104   6
  16   6  -8 1921.93 233.275   2
  16   6  -7 1545.15 225.036   2
  16   6  -7 1587.56 204.252   1
  16   6  -6 146.066 129.249   2
  16   6  -6 253.315 120.425   1
  16   6  -5 21.5504 134.901   1
  16   6  -4 328.821 140.791   1
  16   6  -3 1695.34 240.839   1
 -16   6   1 1234.80 201.464   4
 -17  -6   7 546.710 139.200   5
 -17  -6   6 445.191 142.617   5
 -17  -6   5 495.441 160.313   7
 -17  -6   5 512.144 148.591   5
 -17  -6   4 547.334 147.937   7
 -17  -6   4 768.521 168.416   5
 -17  -5  11 851.738 186.129   5
  17  -5 -11 682.883 165.582   3
 -17  -5  10 648.123 165.060   5
  17  -5 -10 528.986 150.235   3
 -17  -5   9 312.645 121.264   5
  17  -5  -9 510.056 156.853   3
 -17  -5   8 328.133 119.564   5
  17  -5  -8 390.211 136.700   3
 -17  -5   7 530.981 155.813   5
  17  -5  -7 765.522 176.805   3
 -17  -5   6 696.922 153.137   7
  17  -5  -6 769.581 173.222   3
 -17  -5   6 547.600 174.793   5
 -17  -5   5 190.720 108.664   7
  17  -5  -5 151.120 115.582   3
 -17  -5   5 166.355 118.977   5
 -17  -5   4 85.7851 111.422   7
 -17  -5   4 283.008 157.534   5
 -17  -5   3 518.966 156.583   7
 -17  -5   3 218.667 117.262   5
 -17  -5   2 327.382 134.277   7
  17  -4 -16-100.909 101.381   3
  17  -4 -15 339.016 113.701   3
 -17  -4  14 160.954 106.196   5
  17  -4 -14 258.320 121.986   3
 -17  -4  13 1112.81 206.959   5
  17  -4 -13 1413.68 215.918   3
 -17  -4  12 1270.47 202.546   5
  17  -4 -12 1252.93 196.518   3
 -17  -4  11-14.1178 97.4733   5
  17  -4 -11 328.957 118.408   3
 -17  -4  10 432.564 141.221   5
  17  -4 -10 424.964 116.149   3
 -17  -4   9 274.070 120.662   5
  17  -4  -9 195.332 116.810   3
 -17  -4   8 137.373 119.576   5
  17  -4  -8 333.702 143.733   3
 -17  -4   7 455.308 126.229   7
 -17  -4   7 371.563 165.283   5
  17  -4  -7 425.647 124.317   3
 -17  -4   6 149.056 89.4478   7
 -17  -4   6-68.9193 126.257   5
  17  -4  -6 325.394 145.153   3
 -17  -4   5 959.294 165.949   7
 -17  -4   5 1113.12 190.003   5
  17  -4  -5 731.590 162.608   3
 -17  -4   4 1211.87 184.470   7
 -17  -4   4 1233.18 192.100   5
  17  -4  -4 971.347 184.493   3
 -17  -4   3 293.747 123.310   7
 -17  -4   3 154.327 88.7899   5
  17  -4  -3 85.1970 103.616   3
 -17  -4   2 35.3686 119.253   7
  17  -4  -2 274.580 138.395   3
 -17  -4   1 234.608 114.398   7
  17  -4  -1 141.425 107.769   3
  17  -4   0-134.726 133.614   3
  17  -4   1 1038.45 195.365   3
  17  -3 -19-12.9399 102.826   3
  17  -3 -18 369.172 129.589   3
  17  -3 -17 889.462 172.886   3
 -17  -3  16 1269.70 223.118   5
  17  -3 -16 402.760 114.955   3
 -17  -3  15 435.503 146.211   5
  17  -3 -15 486.575 143.936   3
 -17  -3  14 572.708 168.329   5
  17  -3 -14 698.641 152.346   3
 -17  -3  13 57.0127 106.963   5
  17  -3 -13-9.02828 91.3593   3
 -17  -3  12 611.168 162.390   5
  17  -3 -12 667.799 155.893   3
 -17  -3  11 418.095 147.794   5
  17  -3 -11 442.794 132.127   3
 -17  -3  10 163.649 110.461   5
  17  -3 -10 71.8281 98.4568   3
 -17  -3   9-118.030 115.446   5
  17  -3  -9 0.34105 105.210   3
 -17  -3   8-40.2894 131.284   5
  17  -3  -8 52.5438 92.4734   3
 -17  -3   7 203.881 101.732   5
  17  -3  -7 107.981 94.0345   3
 -17  -3   6 394.030 129.033   5
  17  -3  -6 270.105 121.475   3
 -17  -3   5 607.283 141.430   5
  17  -3  -5 403.024 123.302   3
 -17  -3   4 369.150 125.815   5
  17  -3  -4 325.156 128.175   3
 -17  -3   3 628.979 131.672   5
  17  -3  -3 802.953 163.143   3
 -17  -3   2 438.543 114.729   5
  17  -3  -2 215.169 104.897   3
  17  -3  -1 762.577 156.403   3
  17  -3   0 797.468 172.203   3
  17  -3   1 221.603 114.609   3
  17  -2 -20 620.719 145.048   3
  17  -2 -19 816.751 165.088   3
  17  -2 -18 177.041 108.139   3
 -17  -2  17 347.758 145.822   5
  17  -2 -17 328.368 92.2652   3
 -17  -2  16-71.7160 127.136   5
  17  -2 -16 206.828 109.117   3
  17  -2 -15 665.414 150.456   3
 -17  -2  15 706.511 177.725   5
  17  -2 -14 1877.57 238.232   3
 -17  -2  14 1565.01 224.595   5
  17  -2 -13 993.953 178.360   3
 -17  -2  13 1133.88 194.894   5
  17  -2 -12 484.599 132.160   3
 -17  -2  12 281.876 128.181   5
  17  -2 -11 196.571 102.477   3
 -17  -2  11 371.487 130.798   5
  17  -2 -10 644.891 137.031   3
 -17  -2  10 847.347 186.776   5
 -17  -2   9 698.905 153.626   5
  17  -2  -9 869.154 165.588   3
 -17  -2   8 1001.31 192.890   5
  17  -2  -8 931.328 165.399   3
 -17  -2   7 647.471 149.025   5
  17  -2  -7 668.079 135.221   3
 -17  -2   6 346.763 110.548   5
  17  -2  -6 153.493 102.159   3
 -17  -2   5 381.945 110.343   5
  17  -2  -5 398.024 125.230   3
 -17  -2   4 1007.37 157.274   5
  17  -2  -4 978.945 165.981   3
 -17  -2   3 2019.75 210.207   5
  17  -2  -3 1988.24 227.016   3
 -17  -2   2 580.679 120.350   5
  17  -2  -2 480.974 131.856   3
  17  -2  -1 111.074 81.9436   2
  17  -2  -1 163.932 107.211   3
  17  -2   0 452.657 125.398   2
  17  -2   0 295.035 117.353   3
  17  -2   1 161.149 116.453   3
  17  -1 -20 579.625 147.564   3
  17  -1 -19 270.298 135.857   3
  17  -1 -18 241.886 114.753   3
 -17  -1  18 728.617 176.089   5
  17  -1 -17 2331.19 250.309   3
 -17  -1  17 2451.07 278.773   5
  17  -1 -16 2035.29 231.049   3
 -17  -1  16 2032.44 254.573   5
  17  -1 -15 1026.65 182.306   3
 -17  -1  15 1039.24 192.622   5
  17  -1 -14-2.23206 106.396   3
 -17  -1  14 172.548 116.929   5
  17  -1 -13-52.4466 100.897   3
 -17  -1  13-84.3503 92.9857   5
  17  -1 -12 186.572 102.055   3
 -17  -1  12 325.350 123.457   5
 -17  -1  11 2192.47 246.858   5
  17  -1 -11 2281.08 236.471   3
  17  -1 -10 984.002 166.188   3
 -17  -1  10 988.761 167.739   5
  17  -1  -9 1587.63 204.323   3
 -17  -1   9 1398.54 200.334   5
  17  -1  -8 1422.05 188.862   3
 -17  -1   8 1530.34 204.574   5
  17  -1  -7 1228.73 180.855   3
 -17  -1   7 1115.72 176.210   5
  17  -1  -6 2103.88 222.122   3
 -17  -1   6 2143.36 221.857   5
  17  -1  -5 293.029 104.274   3
 -17  -1   5 260.421 110.250   5
  17  -1  -4-22.1434 81.4975   3
 -17  -1   4 8.04275 94.2331   5
 -17  -1   3 253.438 102.381   5
  17  -1  -3 52.0259 108.186   3
  17  -1  -2 1275.70 177.752   2
 -17  -1   2 1220.57 160.669   5
  17  -1  -2 954.855 160.889   3
  17  -1  -1 2053.88 215.589   2
  17  -1  -1 1676.99 206.905   3
  17  -1   0 3024.48 262.588   2
  17  -1   0 2728.11 279.325   1
  17  -1   0 2114.58 234.193   3
  17  -1   1 570.679 124.471   2
  17  -1   1 443.914 118.529   3
  17  -1   2 516.206 143.111   2
  17   0 -20 928.209 175.209   3
  17   0 -19 2364.07 258.669   3
 -17   0  18 4202.84 365.640   5
  17   0 -18 3918.17 314.431   3
  17   0 -17 2019.33 230.132   3
 -17   0  17 1921.53 262.815   5
  17   0 -16 78.9619 86.9408   3
 -17   0  16 11.5895 101.319   5
  17   0 -15 859.356 159.884   3
 -17   0  15 851.099 167.912   5
  17   0 -14 422.850 127.799   3
 -17   0  14-70.8268 114.577   5
  17   0 -13 1417.73 200.707   3
 -17   0  13 1259.42 198.041   5
  17   0 -12 1422.98 187.341   3
 -17   0  12 1535.70 210.864   5
  17   0 -11 1010.67 163.699   3
 -17   0  11 1003.94 180.278   5
  17   0 -10 413.115 120.690   3
 -17   0  10 627.754 147.164   5
  17   0  -9 977.624 151.866   3
 -17   0   9 1072.58 171.245   5
  17   0  -8 1090.68 166.148   3
 -17   0   8 921.155 167.839   5
  17   0  -7 571.885 126.526   3
 -17   0   7 771.982 150.577   5
  17   0  -6 1033.22 163.829   3
 -17   0   6 1082.23 165.619   5
  17   0  -5 1489.69 198.624   3
 -17   0   5 1580.52 200.682   5
  17   0  -4 1348.79 176.102   3
 -17   0   4 1351.92 185.034   5
  17   0  -3 263.237 111.855   3
  17   0  -2 600.539 133.824   3
  17   0  -2 1002.89 175.019   1
  17   0  -2 1360.98 190.531   2
  17   0  -1 31.4430 84.0629   3
  17   0  -1 137.998 98.4185   2
  17   0  -1-49.4598 101.725   1
  17   0   0 2296.93 239.783   2
  17   0   0 2042.09 252.486   1
  17   0   0 1657.50 200.890   3
  17   0   1 4198.77 323.460   2
  17   0   1 3576.15 281.632   3
  17   0   2 3208.96 282.732   2
  17   0   3 913.129 178.640   2
  17   1 -20 704.934 166.248   3
  17   1 -19 502.516 132.129   3
  17   1 -18 349.540 126.235   3
 -17   1  18 620.120 160.363   5
  17   1 -17 2123.90 233.955   3
 -17   1  17 2307.23 279.962   5
  17   1 -16 1999.95 230.927   3
 -17   1  16 1930.75 254.113   5
  17   1 -15 1121.87 182.120   3
 -17   1  15 1393.16 221.078   5
  17   1 -14 60.4620 86.6405   3
 -17   1  14 164.807 128.796   5
  17   1 -13-58.5561 90.5667   3
 -17   1  13 29.4873 96.9098   5
  17   1 -12 461.673 134.626   3
 -17   1  12 301.836 120.714   5
 -17   1  11 2288.10 252.812   5
  17   1 -11 2323.28 239.138   3
  17   1 -10 1237.25 186.220   3
 -17   1  10 1015.78 167.770   5
  17   1  -9 1521.55 203.708   3
 -17   1   9 1480.64 204.657   5
  17   1  -8 1775.59 210.219   3
 -17   1   8 1518.91 207.355   5
  17   1  -7 1361.34 190.169   3
 -17   1   7 1195.82 182.262   5
  17   1  -6 2372.22 241.539   3
  17   1  -5 471.336 128.807   3
  17   1  -4 14.9976 78.0538   3
  17   1  -4 49.6774 89.3313   1
  17   1  -3 246.775 94.2289   3
  17   1  -3 168.280 93.2254   2
  17   1  -3 347.098 121.770   1
  17   1  -2 1053.37 163.230   3
  17   1  -2 1230.02 183.706   2
  17   1  -2 1208.74 182.033   1
  17   1  -1 1653.86 194.131   3
  17   1  -1 2400.25 257.872   2
  17   1  -1 2463.00 264.042   1
  17   1   0 2344.37 224.880   3
  17   1   0 3117.89 282.736   2
  17   1   0 2873.99 297.802   1
  17   1   1 623.411 151.168   2
  17   1   2 219.009 115.397   2
  17   1   3 603.848 176.586   2
  17   2 -19 897.083 179.008   3
  17   2 -18 240.857 110.622   3
  17   2 -17 511.392 151.005   3
  17   2 -16 139.386 91.7823   3
  17   2 -15 855.485 167.975   3
  17   2 -14 1895.91 229.511   3
  17   2 -13 845.631 163.299   3
  17   2 -12 581.330 143.451   3
  17   2 -11 620.093 146.429   3
  17   2 -11 333.728 81.6332   6
  17   2 -10 609.604 141.374   3
  17   2 -10 685.712 98.7321   6
  17   2  -9 919.362 164.443   3
  17   2  -8 494.305 122.286   3
  17   2  -8 781.239 144.866   1
  17   2  -7 779.806 152.125   3
  17   2  -7 710.503 136.829   1
  17   2  -6 628.843 144.392   3
  17   2  -6 307.352 112.533   1
  17   2  -5 480.416 127.057   3
  17   2  -5 578.674 142.842   1
  17   2  -4 763.302 155.415   3
  17   2  -4 850.789 149.895   1
  17   2  -4 1000.10 166.067   2
  17   2  -3 1774.34 206.213   3
  17   2  -3 1914.41 230.483   2
  17   2  -3 1786.70 217.501   1
  17   2  -2 607.610 134.656   3
  17   2  -2 933.441 174.770   2
  17   2  -2 809.280 170.985   1
  17   2  -1 135.013 90.4036   3
  17   2  -1 246.345 126.732   1
  17   2  -1 219.224 118.796   2
  17   2   0 271.094 114.887   3
  17   2   0 370.365 134.611   1
  17   2   0 536.669 144.868   2
  17   2   1 208.552 101.899   2
  17   3 -17 847.220 144.999   6
  17   3 -16 729.737 141.280   6
  17   3 -15 576.284 122.413   6
  17   3 -14 791.969 123.281   6
  17   3 -13 162.707 80.8750   1
  17   3 -13 170.027 80.4125   6
  17   3 -12 490.346 100.369   1
  17   3 -12 622.383 116.171   6
  17   3 -11 365.476 94.1945   6
  17   3 -11 278.876 90.8051   1
  17   3 -10 144.385 77.2509   1
  17   3 -10 98.6584 73.3434   6
  17   3  -9 120.054 84.3356   1
  17   3  -9 71.9409 65.2392   6
  17   3  -8-109.007 102.845   1
  17   3  -8 56.1954 58.8104   6
  17   3  -7 133.314 90.3707   1
  17   3  -6 335.041 126.527   2
  17   3  -6 297.925 105.466   1
  17   3  -5 595.009 150.357   2
  17   3  -5 628.549 140.999   1
  17   3  -4 4.06094 98.8382   3
 -17   3   4-7.61885 68.0977   4
  17   3  -4-0.31114 86.0573   1
  17   3  -3 587.633 132.521   3
  17   3  -3 965.312 174.302   1
 -17   3   3 365.401 101.372   4
  17   3  -3 866.306 175.409   2
  17   3  -2 435.377 129.306   3
 -17   3   2 362.196 127.197   4
  17   3  -2 589.862 139.040   2
  17   3  -2 344.209 121.682   1
  17   3  -1 585.818 140.393   3
 -17   3   1 1103.19 201.655   4
  17   3  -1 905.201 171.599   2
  17   3  -1 903.598 195.155   1
  17   3   0 761.054 144.525   3
 -17   3   0 631.005 181.378   4
 -17   3  -1-148.015 127.306   4
  17   4 -18 914.061 179.039   6
  17   4 -17-60.1598 102.929   6
  17   4 -16 260.349 115.051   6
  17   4 -15 656.025 143.026   6
  17   4 -14 263.692 100.455   6
  17   4 -13 1574.12 190.881   6
  17   4 -12 1053.12 159.487   6
  17   4 -11 185.651 84.9892   1
  17   4 -11 419.603 108.823   6
  17   4 -10 470.829 122.454   1
  17   4 -10 428.838 111.769   6
  17   4  -9 478.359 126.942   1
  17   4  -9 432.119 115.463   6
  17   4  -8 242.916 109.183   1
  17   4  -8 264.616 98.0445   6
  17   4  -7 334.355 123.866   2
  17   4  -7 590.241 140.113   1
  17   4  -6 169.136 117.356   2
  17   4  -6 208.159 90.1170   1
  17   4  -5 1352.65 204.371   2
  17   4  -5 1199.99 184.169   1
 -17   4   4 832.349 128.531   4
  17   4  -4 1456.65 220.031   2
  17   4  -4 1432.35 206.691   1
 -17   4   3 194.871 84.6856   4
  17   4  -3 135.976 109.989   2
  17   4  -3 91.6036 104.444   1
 -17   4   2 45.2333 101.781   4
  17   4  -2 307.836 130.940   1
  17   4  -1-3.20477 92.3420   3
 -17   4   1 390.574 141.186   4
 -17   4   0 255.984 137.101   4
 -17   4  -1 627.208 157.224   4
  17   5 -16 791.166 158.328   6
  17   5 -15 939.612 168.700   6
  17   5 -14 313.466 128.210   6
  17   5 -13 124.525 100.937   6
  17   5 -12 96.2286 96.2338   6
  17   5 -11 607.775 134.603   6
  17   5 -10 629.479 144.370   2
  17   5 -10 612.874 139.146   6
  17   5  -9 470.159 131.704   2
  17   5  -9 454.249 129.414   1
  17   5  -9 390.214 114.879   6
  17   5  -8 394.683 129.402   2
  17   5  -8 427.374 128.495   1
  17   5  -7 639.453 159.857   2
  17   5  -7 846.912 163.776   1
  17   5  -6 1086.87 197.897   2
  17   5  -6 663.385 165.108   1
  17   5  -5 214.575 114.660   1
  17   5  -4 72.5732 113.354   1
  17   5  -3 179.358 111.093   1
 -17   5   1 684.396 180.061   4
  17   6 -13 1116.13 180.916   6
  17   6 -12 460.397 133.826   6
  17   6 -11 349.765 122.683   6
  17   6 -10 797.540 169.077   6
  17   6  -9 882.792 174.311   6
  17   6  -7 366.018 124.391   1
  17   6  -6 284.241 124.183   1
  17   6  -5 536.730 153.371   1
 -18  -5   9 1716.41 231.761   5
 -18  -5   8 1173.35 196.352   5
 -18  -5   7 416.824 121.707   5
 -18  -5   6 197.648 133.042   5
 -18  -5   5 362.783 131.189   7
 -18  -5   5 996.971 188.792   5
 -18  -5   4 600.602 165.135   7
 -18  -5   3 703.387 165.770   7
 -18  -4  12 888.612 173.267   5
  18  -4 -12 848.406 173.890   3
 -18  -4  11 1523.63 225.072   5
  18  -4 -11 1625.14 233.461   3
 -18  -4  10 206.668 138.337   5
  18  -4 -10 235.548 138.489   3
 -18  -4   9 456.128 137.841   5
  18  -4  -9 434.308 149.087   3
 -18  -4   8 118.658 105.822   5
  18  -4  -8-110.688 123.483   3
 -18  -4   7 1029.23 208.905   5
  18  -4  -7 1440.20 220.882   3
 -18  -4   6 631.615 145.704   7
 -18  -4   6 662.806 171.123   5
  18  -4  -6 933.129 194.158   3
 -18  -4   5 635.379 162.429   7
 -18  -4   5 773.320 178.640   5
  18  -4  -5 815.744 174.518   3
 -18  -4   4-14.5862 101.544   7
 -18  -4   4-54.3608 108.886   5
  18  -4  -4 224.242 130.243   3
 -18  -4   3 99.7072 132.025   7
  18  -4  -3 107.129 103.972   3
 -18  -4   2 132.574 121.509   7
  18  -3 -16 601.861 155.713   3
  18  -3 -15 625.788 154.258   3
 -18  -3  14 674.723 166.477   5
  18  -3 -14 804.357 178.034   3
 -18  -3  13 795.293 183.138   5
  18  -3 -13 855.324 173.752   3
 -18  -3  12-126.983 117.181   5
  18  -3 -12 63.3375 100.490   3
 -18  -3  11 173.689 112.012   5
  18  -3 -11 511.230 152.655   3
 -18  -3  10 619.343 149.871   5
  18  -3 -10 846.525 181.751   3
 -18  -3   9 159.084 108.441   5
  18  -3  -9 175.294 95.6709   3
 -18  -3   8 499.305 188.928   5
  18  -3  -8 519.219 147.718   3
 -18  -3   7 236.573 153.424   5
  18  -3  -7 158.818 118.653   3
 -18  -3   6 37.6552 122.563   5
  18  -3  -6-69.0782 99.3615   3
 -18  -3   5 593.115 156.572   5
  18  -3  -5 716.004 165.007   3
 -18  -3   4 356.313 115.347   5
  18  -3  -4 547.089 152.899   3
  18  -3  -3 404.569 137.300   3
  18  -3  -2 349.193 146.997   3
  18  -3  -1-17.0897 131.853   3
  18  -3   0-291.450 141.174   3
  18  -2 -18 325.293 120.698   3
  18  -2 -17 198.304 133.088   3
  18  -2 -16-16.2672 90.3978   3
 -18  -2  15 493.349 174.029   5
  18  -2 -15 522.609 122.871   3
  18  -2 -14 577.949 143.850   3
 -18  -2  14 716.771 164.215   5
 -18  -2  13 2818.05 289.954   5
  18  -2 -13 2679.60 270.913   3
  18  -2 -12 1031.32 175.361   3
 -18  -2  12 1159.58 200.605   5
 -18  -2  11 1922.92 240.188   5
  18  -2 -11 1921.72 229.166   3
 -18  -2  10 710.079 173.384   5
  18  -2 -10 543.641 141.058   3
 -18  -2   9 130.062 107.812   5
  18  -2  -9 441.107 127.960   3
 -18  -2   8 977.946 190.509   5
  18  -2  -8 466.941 127.619   3
 -18  -2   7 1823.82 223.948   5
  18  -2  -7 2242.70 247.110   3
 -18  -2   6 841.361 163.230   5
  18  -2  -6 1106.86 184.894   3
 -18  -2   5 2187.17 230.364   5
  18  -2  -5 3091.31 292.872   3
 -18  -2   4 662.803 143.445   5
  18  -2  -4 1063.81 195.973   3
 -18  -2   3 430.962 109.112   5
  18  -2  -3 425.922 138.983   3
  18  -2  -2 160.129 99.3183   2
  18  -2  -2 18.4885 94.4326   3
  18  -2  -1 246.043 99.3208   2
  18  -2  -1 173.006 109.844   3
  18  -2   0 122.014 99.8672   3
  18  -1 -18 164.657 103.563   3
  18  -1 -17 903.090 187.563   3
  18  -1 -16 949.432 175.936   3
 -18  -1  16 141.364 111.701   5
  18  -1 -15 2495.76 257.265   3
 -18  -1  15 2585.18 291.913   5
  18  -1 -14 1357.76 195.612   3
 -18  -1  14 1125.42 185.514   5
  18  -1 -13 731.883 149.750   3
 -18  -1  13 993.413 185.115   5
  18  -1 -12 70.1617 81.8979   3
 -18  -1  12 134.346 117.800   5
  18  -1 -11 1758.13 218.412   3
 -18  -1  11 1368.57 202.474   5
  18  -1 -10 1636.25 206.710   3
 -18  -1  10 1443.62 205.274   5
 -18  -1   9 4978.16 362.993   5
  18  -1  -9 5032.80 356.078   3
  18  -1  -8 1725.77 216.623   3
 -18  -1   8 1537.84 220.066   5
  18  -1  -7 1697.33 215.934   3
 -18  -1   7 1728.23 227.817   5
  18  -1  -6-23.2200 85.9772   3
 -18  -1   6 108.080 102.417   5
  18  -1  -5 769.083 156.636   3
 -18  -1   5 812.935 158.005   5
 -18  -1   4 1376.79 193.785   5
  18  -1  -4 1552.29 199.463   3
 -18  -1   3 2294.51 228.572   5
  18  -1  -3 2469.63 250.584   3
  18  -1  -2 616.541 137.387   2
  18  -1  -2 561.003 145.960   3
  18  -1  -1 559.144 132.121   2
  18  -1  -1 373.223 117.234   3
  18  -1   0 78.4718 96.0392   2
  18  -1   0-3.30853 125.165   3
  18  -1   1 328.985 112.359   2
  18   0 -18 1091.77 176.910   3
  18   0 -17 4130.73 335.264   3
  18   0 -16 808.228 160.405   3
 -18   0  16 940.278 178.795   5
  18   0 -15 1109.64 186.665   3
 -18   0  15 995.974 197.881   5
  18   0 -14 211.248 91.8837   3
 -18   0  14 188.226 111.242   5
  18   0 -13 931.835 167.570   3
 -18   0  13 830.828 172.147   5
  18   0 -12 1670.82 212.691   3
 -18   0  12 1491.29 211.661   5
  18   0 -11 1467.40 199.993   3
 -18   0  11 1730.33 224.965   5
  18   0 -10 1445.69 198.650   3
 -18   0  10 1148.26 185.050   5
  18   0  -9 277.381 114.563   3
 -18   0   9 0.33319 116.356   5
  18   0  -8 1273.33 189.271   3
 -18   0   8 1260.46 211.158   5
  18   0  -7 1516.44 210.652   3
 -18   0   7 1390.65 200.025   5
  18   0  -6 1236.41 183.455   3
 -18   0   6 1019.21 165.548   5
  18   0  -5 748.157 157.476   3
 -18   0   5 1015.09 178.484   5
  18   0  -4 193.488 87.1018   3
  18   0  -3 931.831 177.031   3
  18   0  -3 1306.59 189.996   2
  18   0  -3 1360.69 203.947   1
  18   0  -2 824.408 166.979   3
  18   0  -2 702.833 153.947   1
  18   0  -1 4920.27 346.807   2
  18   0  -1 3581.47 295.945   3
  18   0   0 1860.54 230.928   2
  18   0   0 864.435 161.747   3
  18   0   1 1613.66 224.075   2
  18   0   2 183.903 108.672   2
  18   1 -18-44.4477 95.1228   3
  18   1 -17 656.223 149.773   3
  18   1 -16 743.082 158.569   3
 -18   1  16 557.185 156.410   5
 -18   1  15 2457.49 286.443   5
  18   1 -15 2465.54 266.429   3
  18   1 -14 1327.98 194.550   3
 -18   1  14 1127.93 195.690   5
  18   1 -13 809.828 168.632   3
 -18   1  13 428.973 148.446   5
  18   1 -12 241.182 113.543   3
 -18   1  12 249.936 106.559   5
  18   1 -11 1327.22 199.097   3
 -18   1  11 1501.97 218.488   5
  18   1 -10 1611.68 205.278   3
 -18   1  10 1558.35 220.229   5
 -18   1   9 4599.74 349.106   5
  18   1  -9 5120.15 356.171   3
  18   1  -8 1476.19 202.537   3
 -18   1   8 1074.99 183.733   5
  18   1  -7 1446.31 203.170   3
  18   1  -6 135.316 96.1452   3
  18   1  -5 972.778 166.876   1
  18   1  -5 705.420 146.876   3
  18   1  -4 1015.82 172.606   3
  18   1  -4 1768.62 214.416   2
  18   1  -4 1662.17 221.810   1
  18   1  -3 2021.62 226.540   3
  18   1  -3 3136.49 285.722   2
  18   1  -3 3110.99 288.318   1
  18   1  -2 687.907 151.240   3
  18   1  -2 919.535 171.217   1
  18   1  -2 938.787 183.304   2
  18   1  -1 371.977 106.815   3
  18   1  -1 634.281 152.938   2
  18   1   0 86.1357 76.9673   3
  18   1   0 250.926 134.470   2
  18   1   1 384.194 151.998   2
  18   2 -17-60.4304 110.451   3
  18   2 -16-2.95132 103.169   3
  18   2 -15 312.521 114.723   3
  18   2 -14 799.049 157.142   3
  18   2 -13 2328.68 261.688   3
  18   2 -12 1270.18 194.484   3
  18   2 -11 2422.87 250.121   3
  18   2 -10 555.481 127.138   3
  18   2  -9 107.167 92.2094   3
  18   2  -9 221.529 101.603   1
  18   2  -8 738.137 155.093   3
  18   2  -8 538.769 125.090   1
  18   2  -7 2035.50 237.622   3
  18   2  -7 2500.66 246.972   1
  18   2  -6 1215.04 189.330   3
  18   2  -6 1016.38 159.976   1
  18   2  -5 2988.13 278.402   2
  18   2  -5 3102.66 281.559   1
  18   2  -5 2370.60 249.145   3
  18   2  -4 865.130 172.180   3
  18   2  -4 811.850 160.551   2
  18   2  -4 1005.99 180.925   1
  18   2  -3 204.097 101.500   3
  18   2  -3 312.762 117.118   2
  18   2  -3 532.305 167.167   1
  18   2  -2 17.2151 96.7179   3
  18   2  -2 59.8949 91.9246   2
  18   2  -2 106.445 114.127   1
  18   2  -1 180.625 110.967   3
  18   2  -1 273.045 141.561   2
  18   3 -13 882.285 137.528   1
  18   3 -12 15.2695 85.2467   1
  18   3 -11 522.281 118.731   1
  18   3 -10 348.281 105.919   1
  18   3  -9 190.420 96.4311   1
  18   3  -8 518.323 133.890   1
  18   3  -7 282.296 107.961   1
  18   3  -6 5.43395 84.9152   3
  18   3  -6 67.2768 105.313   2
  18   3  -6-51.9560 93.7536   1
  18   3  -5 618.155 145.273   3
  18   3  -5 860.127 171.492   2
  18   3  -5 1025.34 178.209   1
  18   3  -4 556.037 138.855   3
  18   3  -4 654.926 145.979   1
  18   3  -4 730.409 175.920   2
  18   3  -3 1018.84 188.194   1
  18   3  -3 398.384 125.454   3
  18   3  -3 810.278 183.112   2
  18   3  -2 575.349 148.303   3
  18   3  -1 316.802 134.210   3
  18   4 -11 910.875 144.120   1
  18   4 -10 2.91116 79.8691   1
  18   4  -9 315.054 102.635   1
  18   4  -8 96.8590 98.8231   1
  18   4  -8 272.398 126.336   2
  18   4  -7 1749.65 233.119   2
  18   4  -7 1275.45 184.770   1
  18   4  -6 1142.35 200.006   2
  18   4  -6 828.330 166.566   1
  18   4  -5 1024.07 176.447   1
  18   4  -4-15.9472 104.632   1
  18   4  -3 180.206 121.737   3
  18   4  -2 227.546 110.655   3
 -18   4   1 866.397 188.398   4
  18   5 -13 898.671 162.308   6
  18   5 -12 222.355 96.9404   6
  18   5 -11 746.227 152.183   6
  18   5 -10 1130.59 167.701   6
  18   5  -9 1655.39 209.333   1
  18   5  -9 1524.58 200.625   6
  18   5  -8 898.862 154.875   1
  18   5  -8 1082.21 178.972   6
  18   5  -7 700.756 162.163   1
  18   5  -6-94.9967 116.874   1
  18   5  -5 994.283 205.051   1
  18   6 -10 561.006 144.009   6
  18   6  -9 1071.67 192.300   6
  18   6  -8 183.302 97.8767   6
 -19  -5   6 858.127 190.640   5
 -19  -4  10 240.247 136.720   5
 -19  -4   9 144.432 107.647   5
 -19  -4   8-9.96422 138.411   5
 -19  -4   7 261.708 130.845   5
 -19  -4   6 403.853 151.889   5
 -19  -4   5-66.8595 113.462   5
 -19  -3  12 470.510 167.101   5
 -19  -3  11 181.260 113.236   5
  19  -3 -11 382.421 135.603   3
 -19  -3  10 494.437 161.569   5
  19  -3 -10 607.754 160.253   3
 -19  -3   9 386.360 137.569   5
  19  -3  -9 502.494 151.458   3
 -19  -3   8 279.286 125.521   5
  19  -3  -8 512.266 159.997   3
 -19  -3   7 244.193 143.032   5
  19  -3  -7 50.3783 102.938   3
 -19  -3   6 183.104 123.534   5
  19  -3  -6 82.5467 111.667   3
 -19  -3   5 285.184 136.923   5
  19  -3  -5 785.761 182.868   3
  19  -3  -4 1188.41 204.438   3
  19  -3  -3 80.3434 105.137   3
 -19  -2  14 534.719 160.681   5
  19  -2 -14 666.122 162.630   3
 -19  -2  13 925.892 181.887   5
  19  -2 -13 622.438 159.783   3
 -19  -2  12 59.5015 112.278   5
  19  -2 -12 40.4671 94.0815   3
 -19  -2  11 1086.09 196.095   5
  19  -2 -11 1355.20 210.032   3
 -19  -2  10 786.108 173.771   5
  19  -2 -10 552.453 149.186   3
 -19  -2   9 414.699 143.588   5
  19  -2  -9 459.985 157.864   3
 -19  -2   8 1092.06 213.361   5
  19  -2  -8 1212.25 190.596   3
 -19  -2   7 431.640 150.362   5
  19  -2  -7 243.323 106.934   3
 -19  -2   6 267.653 133.342   5
  19  -2  -6 648.244 158.355   3
 -19  -2   5 583.967 159.918   5
  19  -2  -5 484.427 138.768   3
 -19  -2   4 351.317 130.783   5
  19  -2  -4 634.986 138.977   3
  19  -2  -3 573.667 170.210   3
  19  -2  -2 1070.49 178.544   2
  19  -2  -2 618.368 159.050   3
  19  -2  -1 167.123 110.359   3
  19  -1 -16 672.315 153.909   3
  19  -1 -15 1341.39 200.059   3
 -19  -1  15 1685.64 249.587   5
  19  -1 -14 390.837 134.199   3
 -19  -1  14 380.748 141.266   5
  19  -1 -13 1420.51 213.563   3
 -19  -1  13 1034.64 188.982   5
  19  -1 -12 651.124 149.804   3
 -19  -1  12 644.092 160.709   5
  19  -1 -11 125.165 86.5857   3
 -19  -1  11 70.8023 105.739   5
  19  -1 -10 721.089 153.122   3
 -19  -1  10 905.632 180.835   5
  19  -1  -9 700.201 154.934   3
 -19  -1   9 556.360 154.663   5
  19  -1  -8 124.162 95.2713   3
 -19  -1   8 85.7906 159.856   5
  19  -1  -7 813.346 168.364   3
 -19  -1   7 453.989 141.723   5
  19  -1  -6 1431.64 211.888   3
 -19  -1   6 1072.79 193.846   5
 -19  -1   5 557.484 138.411   5
  19  -1  -5 363.500 124.233   3
 -19  -1   4 1102.82 169.474   5
  19  -1  -4 1237.23 196.532   3
  19  -1  -3 478.867 129.934   2
  19  -1  -3 449.860 134.852   3
  19  -1  -2 297.444 112.417   2
  19  -1  -2 90.9894 104.834   3
  19  -1  -1 110.249 91.1402   2
  19  -1  -1 269.688 126.826   3
  19  -1   0 1964.16 235.372   2
  19   0 -16 556.871 152.738   3
  19   0 -15 902.984 176.413   3
 -19   0  15 1002.63 205.469   5
  19   0 -14 788.370 153.540   3
 -19   0  14 712.472 170.029   5
  19   0 -13 699.715 157.213   3
 -19   0  13 725.546 175.278   5
  19   0 -12 506.296 147.460   3
 -19   0  12 612.434 155.501   5
  19   0 -11 1257.71 205.811   3
 -19   0  11 741.321 186.744   5
  19   0 -10 240.324 130.117   3
 -19   0  10 445.321 150.033   5
  19   0  -9 527.412 137.641   3
 -19   0   9 470.131 154.831   5
  19   0  -8 1278.39 195.895   3
 -19   0   8 1331.15 218.962   5
  19   0  -7 789.829 146.473   3
 -19   0   7 826.258 184.418   5
  19   0  -6 458.984 138.182   3
 -19   0   6 397.700 149.479   5
  19   0  -5 839.959 167.090   3
  19   0  -4 749.261 161.327   3
  19   0  -4 1369.66 214.274   1
  19   0  -3 385.055 127.867   3
  19   0  -3 980.101 178.789   2
  19   0  -2 3124.50 290.408   2
  19   0  -2 2086.79 249.129   3
  19   0  -1 1358.16 200.138   2
  19   0  -1 852.975 168.628   3
  19   0   0 757.387 163.138   2
  19   1 -15 1303.38 200.023   3
 -19   1  15 1406.03 234.796   5
  19   1 -14 615.757 156.941   3
 -19   1  14 669.020 173.335   5
  19   1 -13 1377.94 215.046   3
 -19   1  13 824.515 181.754   5
  19   1 -12 1031.37 189.188   3
 -19   1  12 674.874 171.174   5
  19   1 -11 93.7915 105.261   3
 -19   1  11-61.9764 117.115   5
  19   1 -10 500.514 144.021   3
 -19   1  10 684.525 167.537   5
  19   1  -9 863.959 157.528   3
 -19   1   9 540.173 153.293   5
  19   1  -8 3.83299 86.8113   3
  19   1  -7 516.405 127.096   3
  19   1  -6 1206.82 190.470   3
  19   1  -6 1322.80 204.674   1
  19   1  -5 548.112 147.025   3
  19   1  -5 482.312 141.334   1
  19   1  -4 1282.38 197.670   3
  19   1  -4 1451.01 211.048   2
  19   1  -4 2063.40 243.948   1
  19   1  -3 323.245 114.129   3
  19   1  -3 581.555 161.327   2
  19   1  -2 379.745 130.215   3
  19   1  -2 576.429 150.373   2
  19   1  -1 290.781 106.935   3
  19   2 -14 846.180 176.527   3
  19   2 -13 657.379 161.532   3
  19   2 -12 285.486 124.998   3
  19   2 -11 1193.71 205.210   3
  19   2 -10 591.401 141.534   3
  19   2 -10 639.485 136.097   1
  19   2  -9 488.143 121.437   3
  19   2  -9 728.192 151.002   1
  19   2  -8 1317.43 199.851   3
  19   2  -8 1424.88 204.443   1
  19   2  -7 237.652 116.569   3
  19   2  -7 327.964 128.567   1
  19   2  -6 988.711 182.863   3
  19   2  -6 949.780 174.219   1
  19   2  -5 664.851 164.712   1
  19   2  -5 426.771 131.585   3
  19   2  -5 808.605 184.142   2
  19   2  -4 326.586 129.911   3
  19   2  -4 645.469 167.567   2
  19   2  -4 711.939 175.569   1
  19   2  -3 658.522 125.492   3
  19   2  -2 516.803 138.996   3
  19   3 -12 274.045 107.335   1
  19   3 -11 309.809 118.406   1
  19   3 -10 559.685 133.310   1
  19   3 -10 237.606 107.484   3
  19   3  -9 481.734 140.176   3
  19   3  -9 457.915 128.949   1
  19   3  -8 450.876 141.912   3
  19   3  -8 311.908 115.713   1
  19   3  -7 344.312 131.639   3
  19   3  -7 271.300 113.914   1
  19   3  -6 333.432 100.780   3
  19   3  -6 505.915 142.988   1
  19   3  -5 138.280 99.7549   3
  19   3  -5 1096.46 194.073   1
  19   3  -4 895.156 168.017   3
  19   3  -3 177.530 117.019   3
  19   3  -2 104.928 94.6585   3
  19   4 -11 413.537 133.589   1
  19   4 -10 124.074 113.121   1
  19   4  -9-68.2363 104.513   1
  19   4  -8 402.561 140.183   1
  19   4  -7 587.344 166.402   1
  19   4  -6 509.092 157.359   1
  19   4  -3 127.909 114.315   3
  19   5  -8 580.020 171.232   1
  19   5  -7 390.629 143.662   1
 -20  -4   7 521.744 147.803   5
 -20  -3  10 426.980 167.328   5
 -20  -3   9 829.040 172.815   5
 -20  -3   8 472.696 127.349   5
 -20  -3   7 1909.82 250.917   5
 -20  -3   6 252.842 142.064   5
 -20  -2  12 403.415 152.506   5
 -20  -2  11 809.752 182.950   5
 -20  -2  10 260.142 132.621   5
 -20  -2   9 632.344 172.461   5
 -20  -2   8 468.914 153.093   5
 -20  -2   7 129.903 156.835   5
 -20  -2   6 292.459 149.597   5
 -20  -2   5 1631.58 230.813   5
  20  -2  -3 1141.42 188.209   2
 -20  -1  13 1068.87 208.232   5
 -20  -1  12 939.793 203.854   5
  20  -1 -11 798.022 173.367   3
 -20  -1  11 646.929 150.229   5
  20  -1 -10 316.332 124.290   3
 -20  -1  10 120.767 112.925   5
  20  -1  -9 819.961 178.743   3
 -20  -1   9 611.204 159.529   5
  20  -1  -8 730.628 147.003   3
 -20  -1   8 535.709 168.496   5
  20  -1  -7 841.424 170.194   3
 -20  -1   7 330.907 133.491   5
 -20  -1   6 190.916 128.829   5
  20  -1  -6 518.360 148.551   3
 -20  -1   5-25.8047 146.112   5
  20  -1  -5 249.770 115.001   3
  20  -1  -4 80.9686 109.951   3
  20  -1  -3 597.394 140.793   2
  20  -1  -3 765.768 170.769   3
  20  -1  -2 481.195 150.227   2
  20  -1  -2 679.659 173.949   3
 -20   0  13 724.063 182.147   5
  20   0 -12 853.882 174.630   3
 -20   0  12 961.945 194.542   5
 -20   0  11 3405.37 332.143   5
  20   0 -11 3085.83 305.783   3
  20   0 -10 745.251 154.878   3
 -20   0  10 642.206 159.160   5
 -20   0   9 3583.09 331.792   5
  20   0  -9 3674.00 320.590   3
  20   0  -8 597.794 157.662   3
 -20   0   8 477.372 141.341   5
  20   0  -7 786.399 176.215   3
 -20   0   7 712.207 180.229   5
  20   0  -6 438.652 141.032   3
  20   0  -5 424.720 136.498   3
  20   0  -4 524.925 146.166   3
  20   0  -4 1035.32 193.778   2
  20   0  -3 548.262 142.878   3
  20   0  -2 68.6251 112.016   3
 -20   1  12 716.935 182.387   5
  20   1 -11 399.179 131.426   3
 -20   1  11 275.928 129.185   5
  20   1 -10 199.839 101.608   3
  20   1  -9 604.268 156.075   3
  20   1  -8 799.203 168.021   3
  20   1  -7 609.019 160.613   3
  20   1  -7 1494.81 211.897   1
  20   1  -6 343.613 130.521   3
  20   1  -5 262.616 104.466   3
  20   1  -4 230.539 123.332   3
  20   1  -3 504.656 143.656   3
  20   1  -2 429.192 138.080   3
  20   2 -11 1180.18 188.682   1
  20   2 -10 1038.08 179.750   1
  20   2  -9 976.419 188.627   3
  20   2  -9 954.644 176.967   1
  20   2  -8 186.966 114.344   3
  20   2  -8 168.370 110.575   1
  20   2  -7 488.523 153.400   3
  20   2  -7 264.436 119.947   1
  20   2  -6 213.517 106.443   3
  20   2  -5 1060.91 187.415   3
  20   2  -4 394.225 122.783   3
  20   2  -3 867.216 177.203   3
  20   3 -12 470.588 123.367   1
  20   3 -11 1002.01 171.395   1
  20   3 -10 142.088 128.536   1
  20   3  -9 1116.18 183.608   1
  20   3  -8 814.240 173.180   1
  20   4 -10 808.603 161.969   1
  20   4  -9 863.129 168.208   1
  20   4  -8 114.856 119.469   1
 -21  -2   9 427.679 147.303   5
 -21  -2   8 349.396 133.600   5
 -21  -2   7 378.882 132.225   5
 -21  -1  10 319.687 130.158   5
 -21  -1   9 72.5467 111.154   5
 -21  -1   8 436.990 140.544   5
 -21  -1   7 615.072 170.003   5
 -21  -1   6 15.2571 135.654   5
 -21   0  10 320.790 144.802   5
 -21   0   9 366.529 154.966   5
 -21   0   8 410.746 152.939   5
  21   2 -13 519.295 154.870   1
  21   2 -12 319.195 112.504   1
  21   2 -11 274.790 122.896   1
  21   2 -10 560.938 154.051   1
  21   3 -12 296.884 111.535   1
  21   3 -11 1194.35 183.043   1
  21   3 -10 1135.73 199.063   1
   0   0   0    0.00    0.00   0

TITL mP in P2(1)
REM P2(1) (#4 in standard setting)
CELL 0.71073  16.137004   7.605182  16.139987  90.0000 119.9842  90.0000
ZERR    2.00   0.000373   0.000104   0.000360   0.0000   0.0030   0.0000
LATT -1
SYMM -x, y+1/2,-z
SFAC C H N O Mn
UNIT 6.00 16.00 4.00 12.00 2.00
TREF
HKLF 4
END
;
_shelx_hkl_checksum              93289

