####################################################################### 
# 
# This file contains crystal structure data downloaded from the 
# Cambridge Structural Database (CSD) hosted by the Cambridge 
# Crystallographic Data Centre (CCDC).
# 
# Full information about CCDC data access policies and citation 
# guidelines are available at http://www.ccdc.cam.ac.uk/access/V1 
# 
# Audit and citation data items may have been added by the CCDC. 
# Please retain this information to preserve the provenance of 
# this file and to allow appropriate attribution of the data. 
# 
#######################################################################

data_hydrmn_p63_310k
_audit_block_doi                 10.5517/ccdc.csd.cc1mk87p
_database_code_depnum_ccdc_archive 'CCDC 1506142'
loop_
_citation_id
_citation_doi
_citation_year
1 10.1039/C6CP06648H 2016
_audit_update_record             
;
2016-09-23 deposited with the CCDC.	2023-04-05 downloaded from the CCDC.
;

_audit_creation_method           SHELXL-2014/7
_shelx_SHELXL_version_number     2014/7
_chemical_name_systematic        ?
_chemical_name_common            ?
_chemical_melting_point          ?
_chemical_formula_moiety         ?
_chemical_formula_sum            'C3 H8 Mn N2 O6'
_chemical_formula_weight         223.05

loop_
_atom_type_symbol
_atom_type_description
_atom_type_scat_dispersion_real
_atom_type_scat_dispersion_imag
_atom_type_scat_source
C C 0.0033 0.0016 'International Tables Vol C Tables 4.2.6.8 and 6.1.1.4'
H H 0.0000 0.0000 'International Tables Vol C Tables 4.2.6.8 and 6.1.1.4'
Mn Mn 0.3368 0.7283 'International Tables Vol C Tables 4.2.6.8 and 6.1.1.4'
N N 0.0061 0.0033 'International Tables Vol C Tables 4.2.6.8 and 6.1.1.4'
O O 0.0106 0.0060 'International Tables Vol C Tables 4.2.6.8 and 6.1.1.4'

_space_group_crystal_system      hexagonal
_space_group_IT_number           173
_space_group_name_H-M_alt        'P 63'
_space_group_name_Hall           'P 6c'

_shelx_space_group_comment       
;
The symmetry employed for this shelxl refinement is uniquely defined
by the following loop, which should always be used as a source of
symmetry information in preference to the above space-group names.
They are only intended as comments.
;

loop_
_space_group_symop_operation_xyz
'x, y, z'
'x-y, x, z+1/2'
'-y, x-y, z'
'-x, -y, z+1/2'
'-x+y, -x, z'
'y, -x+y, z+1/2'

_cell_length_a                   7.988(3)
_cell_length_b                   7.988(3)
_cell_length_c                   7.807(3)
_cell_angle_alpha                90
_cell_angle_beta                 90
_cell_angle_gamma                120
_cell_volume                     431.4(4)
_cell_formula_units_Z            2
_cell_measurement_temperature    310(2)
_cell_measurement_reflns_used    5005
_cell_measurement_theta_min      2.9220
_cell_measurement_theta_max      27.5860

_exptl_crystal_description       block
_exptl_crystal_colour            colourless
_exptl_crystal_density_meas      ?
_exptl_crystal_density_method    ?
_exptl_crystal_density_diffrn    1.717
_exptl_crystal_F_000             226
_exptl_transmission_factor_min   ?
_exptl_transmission_factor_max   ?
_exptl_crystal_size_max          0.188
_exptl_crystal_size_mid          0.141
_exptl_crystal_size_min          0.135
_exptl_absorpt_coefficient_mu    1.527
_shelx_estimated_absorpt_T_min   ?
_shelx_estimated_absorpt_T_max   ?
_exptl_absorpt_correction_type   analytical
_exptl_absorpt_correction_T_min  0.821
_exptl_absorpt_correction_T_max  0.870
_exptl_absorpt_process_details   
;
Clark, R. C. & Reid, J. S. (1995). Acta Cryst. A51, 887-897
;
_exptl_absorpt_special_details   ?
_diffrn_ambient_temperature      310(2)
_diffrn_radiation_wavelength     0.71073
_diffrn_radiation_type           MoK\a
_diffrn_source                   'fine-focus sealed X-ray tube'
_diffrn_measurement_device_type  'Xcalibur, Atlas'
_diffrn_measurement_method       ?
_diffrn_detector_area_resol_mean 10.6249
_diffrn_reflns_number            8258
_diffrn_reflns_av_unetI/netI     0.0125
_diffrn_reflns_av_R_equivalents  0.0284
_diffrn_reflns_limit_h_min       -9
_diffrn_reflns_limit_h_max       9
_diffrn_reflns_limit_k_min       -9
_diffrn_reflns_limit_k_max       9
_diffrn_reflns_limit_l_min       -9
_diffrn_reflns_limit_l_max       9
_diffrn_reflns_theta_min         3.936
_diffrn_reflns_theta_max         25.957
_diffrn_reflns_theta_full        25.957
_diffrn_measured_fraction_theta_max 0.997
_diffrn_measured_fraction_theta_full 0.997
_diffrn_reflns_Laue_measured_fraction_max 0.997
_diffrn_reflns_Laue_measured_fraction_full 0.997
_diffrn_reflns_point_group_measured_fraction_max 0.998
_diffrn_reflns_point_group_measured_fraction_full 0.998
_reflns_number_total             567
_reflns_number_gt                544
_reflns_threshold_expression     'I > 2\s(I)'
_reflns_Friedel_coverage         0.865
_reflns_Friedel_fraction_max     1.000
_reflns_Friedel_fraction_full    1.000

_reflns_special_details          
;
 Reflections were merged by SHELXL according to the crystal
 class for the calculation of statistics and refinement.
 
 _reflns_Friedel_fraction is defined as the number of unique
 Friedel pairs measured divided by the number that would be
 possible theoretically, ignoring centric projections and
 systematic absences.
;

_computing_data_collection       ?
_computing_cell_refinement       ?
_computing_data_reduction        ?
_computing_structure_solution    ?
_computing_structure_refinement  'SHELXL-2014/7 (Sheldrick, 2014)'
_computing_molecular_graphics    ?
_computing_publication_material  ?
_refine_special_details          ?
_refine_ls_structure_factor_coef Fsqd
_refine_ls_matrix_type           full
_refine_ls_weighting_scheme      calc
_refine_ls_weighting_details     
'w=1/[\s^2^(Fo^2^)+(0.0222P)^2^+0.0711P] where P=(Fo^2^+2Fc^2^)/3'
_atom_sites_solution_primary     ?
_atom_sites_solution_secondary   ?
_atom_sites_solution_hydrogens   mixed
_refine_ls_hydrogen_treatment    constr
_refine_ls_extinction_method     none
_refine_ls_extinction_coef       .
_refine_ls_abs_structure_details 
;
 Flack x determined using 244 quotients [(I+)-(I-)]/[(I+)+(I-)]
 (Parsons, Flack and Wagner, Acta Cryst. B69 (2013) 249-259).
;
_refine_ls_abs_structure_Flack   0.000(12)
_chemical_absolute_configuration ?
_refine_ls_number_reflns         567
_refine_ls_number_parameters     50
_refine_ls_number_restraints     2
_refine_ls_R_factor_all          0.0185
_refine_ls_R_factor_gt           0.0171
_refine_ls_wR_factor_ref         0.0419
_refine_ls_wR_factor_gt          0.0415
_refine_ls_goodness_of_fit_ref   1.096
_refine_ls_restrained_S_all      1.098
_refine_ls_shift/su_max          0.000
_refine_ls_shift/su_mean         0.000

loop_
_atom_site_label
_atom_site_type_symbol
_atom_site_fract_x
_atom_site_fract_y
_atom_site_fract_z
_atom_site_U_iso_or_equiv
_atom_site_adp_type
_atom_site_occupancy
_atom_site_site_symmetry_order
_atom_site_calc_flag
_atom_site_refinement_flags_posn
_atom_site_refinement_flags_adp
_atom_site_refinement_flags_occupancy
_atom_site_disorder_assembly
_atom_site_disorder_group
Mn1 Mn -0.3333 -0.6667 -0.27200(19) 0.02482(18) Uani 1 3 d S T P . .
O1 O -0.3130(3) -0.4305(3) -0.4260(3) 0.0491(6) Uani 1 1 d . . . . .
O2 O -0.4303(3) -0.3131(3) -0.6181(3) 0.0489(6) Uani 1 1 d . . . . .
C1 C -0.4401(4) -0.4397(4) -0.5222(6) 0.0451(7) Uani 1 1 d . . . . .
H1 H -0.5567 -0.5560 -0.5221 0.054 Uiso 1 1 calc R U . . .
N1 N -0.065(6) -0.024(9) -0.343(4) 0.120(13) Uani 0.3333 1 d D . P . .
H1A H -0.1650 -0.1322 -0.3705 0.144 Uiso 0.3333 1 d R U P . .
H1B H -0.1010 0.0535 -0.3035 0.144 Uiso 0.3333 1 d R U P . .
N2 N 0.042(4) -0.030(8) -0.214(3) 0.131(15) Uani 0.3333 1 d D . P . .
H2A H 0.1485 -0.0245 -0.2554 0.157 Uiso 0.3333 1 calc R U P . .
H2B H -0.0257 -0.1399 -0.1555 0.157 Uiso 0.3333 1 calc R U P . .
H2C H 0.0748 0.0697 -0.1440 0.157 Uiso 0.3333 1 calc R U P . .

loop_
_atom_site_aniso_label
_atom_site_aniso_U_11
_atom_site_aniso_U_22
_atom_site_aniso_U_33
_atom_site_aniso_U_23
_atom_site_aniso_U_13
_atom_site_aniso_U_12
Mn1 0.0254(2) 0.0254(2) 0.0237(3) 0.000 0.000 0.01268(11)
O1 0.0478(13) 0.0426(13) 0.0562(16) 0.0102(10) -0.0187(12) 0.0221(10)
O2 0.0438(13) 0.0479(13) 0.0548(16) 0.0171(12) -0.0107(11) 0.0228(11)
C1 0.0383(16) 0.0390(16) 0.0544(16) 0.0125(18) -0.0106(18) 0.0166(11)
N1 0.10(3) 0.08(3) 0.20(2) -0.02(3) -0.03(3) 0.06(4)
N2 0.049(16) 0.08(2) 0.22(3) 0.04(2) -0.008(18) 0.005(9)

_geom_special_details            
;
 All esds (except the esd in the dihedral angle between two l.s. planes)
 are estimated using the full covariance matrix.  The cell esds are taken
 into account individually in the estimation of esds in distances, angles
 and torsion angles; correlations between esds in cell parameters are only
 used when they are defined by crystal symmetry.  An approximate (isotropic)
 treatment of cell esds is used for estimating esds involving l.s. planes.
;

loop_
_geom_bond_atom_site_label_1
_geom_bond_atom_site_label_2
_geom_bond_distance
_geom_bond_site_symmetry_2
_geom_bond_publ_flag
Mn1 O1 2.174(2) 5_545 ?
Mn1 O1 2.174(2) 3_445 ?
Mn1 O1 2.174(2) . ?
Mn1 O2 2.174(2) 6_545 ?
Mn1 O2 2.174(2) 4_445 ?
Mn1 O2 2.174(2) 2 ?
O1 C1 1.235(4) . ?
O2 C1 1.230(4) . ?
O2 Mn1 2.174(2) 2_454 ?
C1 H1 0.9300 . ?
N1 N2 1.015(17) 5 ?
N1 N2 1.27(5) 3 ?
N1 N2 1.338(18) . ?
N1 H1A 0.8599 . ?
N1 H1B 0.8605 . ?
N2 H2A 0.8900 . ?
N2 H2B 0.8900 . ?
N2 H2C 0.8900 . ?

loop_
_geom_angle_atom_site_label_1
_geom_angle_atom_site_label_2
_geom_angle_atom_site_label_3
_geom_angle
_geom_angle_site_symmetry_1
_geom_angle_site_symmetry_3
_geom_angle_publ_flag
O1 Mn1 O1 92.35(10) 5_545 3_445 ?
O1 Mn1 O1 92.35(10) 5_545 . ?
O1 Mn1 O1 92.35(10) 3_445 . ?
O1 Mn1 O2 82.51(7) 5_545 6_545 ?
O1 Mn1 O2 93.18(8) 3_445 6_545 ?
O1 Mn1 O2 172.60(7) . 6_545 ?
O1 Mn1 O2 172.60(7) 5_545 4_445 ?
O1 Mn1 O2 82.52(7) 3_445 4_445 ?
O1 Mn1 O2 93.18(8) . 4_445 ?
O2 Mn1 O2 92.42(10) 6_545 4_445 ?
O1 Mn1 O2 93.18(8) 5_545 2 ?
O1 Mn1 O2 172.60(7) 3_445 2 ?
O1 Mn1 O2 82.52(7) . 2 ?
O2 Mn1 O2 92.42(10) 6_545 2 ?
O2 Mn1 O2 92.42(10) 4_445 2 ?
C1 O1 Mn1 125.6(2) . . ?
C1 O2 Mn1 125.4(2) . 2_454 ?
O2 C1 O1 127.5(3) . . ?
O2 C1 H1 116.2 . . ?
O1 C1 H1 116.2 . . ?
N2 N1 N2 43(4) 5 3 ?
N2 N1 N2 41(4) 5 . ?
N2 N1 N2 39(3) 3 . ?
N2 N1 H1A 98.7 5 . ?
N2 N1 H1A 141.9 3 . ?
N2 N1 H1A 116.4 . . ?
N2 N1 H1B 74.5 5 . ?
N2 N1 H1B 66.0 3 . ?
N2 N1 H1B 102.1 . . ?
H1A N1 H1B 109.6 . . ?
N1 N2 H2A 109.5 . . ?
N1 N2 H2B 109.5 . . ?
H2A N2 H2B 109.5 . . ?
N1 N2 H2C 109.5 . . ?
H2A N2 H2C 109.5 . . ?
H2B N2 H2C 109.5 . . ?

loop_
_geom_torsion_atom_site_label_1
_geom_torsion_atom_site_label_2
_geom_torsion_atom_site_label_3
_geom_torsion_atom_site_label_4
_geom_torsion
_geom_torsion_site_symmetry_1
_geom_torsion_site_symmetry_2
_geom_torsion_site_symmetry_3
_geom_torsion_site_symmetry_4
_geom_torsion_publ_flag
Mn1 O2 C1 O1 -175.8(3) 2_454 . . . ?
Mn1 O1 C1 O2 -175.7(3) . . . . ?

loop_
_geom_hbond_atom_site_label_D
_geom_hbond_atom_site_label_H
_geom_hbond_atom_site_label_A
_geom_hbond_distance_DH
_geom_hbond_distance_HA
_geom_hbond_distance_DA
_geom_hbond_angle_DHA
_geom_hbond_site_symmetry_A
N1 H1A O1 0.86 2.11 2.91(6) 154.1 .
N1 H1B O1 0.86 2.35 3.00(6) 132.9 5
N1 H1B O2 0.86 2.47 3.24(4) 150.3 6
N2 H2A O1 0.89 2.36 3.18(3) 152.7 3
N2 H2B O2 0.89 2.07 2.88(5) 150.8 2
N2 H2C N1 0.89 2.46 3.049(17) 124.3 6

_refine_diff_density_max         0.170
_refine_diff_density_min         -0.183
_refine_diff_density_rms         0.035

_shelx_res_file                  
;

    hydrmn_p63_310k.res created by SHELXL-2014/7

TITL a in P63 #173
REM reset to P63 #173
CELL 0.71073 7.988 7.988 7.807 90 90 120
ZERR 2 0.003 0.003 0.003 0 0 0
LATT -1
SYMM -Y+X,+X,0.5+Z
SYMM -Y,+X-Y,+Z
SYMM -X,-Y,0.5+Z
SYMM +Y-X,-X,+Z
SYMM +Y,-X+Y,0.5+Z
SFAC C H Mn N O
UNIT 6 16 2 4 12
EQIV $1 -Y,+X-Y,+Z
EQIV $2 +Y-X,-X,+Z
EQIV $3 -Y+X,+X,0.5+Z
EQIV $4 +Y,-X+Y,0.5+Z
DFIX 1.38 N1 N2

L.S. 11
PLAN  20
TEMP 36.85(10)
HTAB N1 O1
HTAB N1 O1_$2
HTAB N1 O2_$4
HTAB N2 O1_$1
HTAB N2 O2_$3
HTAB N2 N1_$4
FREE N1 N1_$2
FREE N1 N1_$1
FREE N1 H2a_$1
FREE N1 H2a_$2
FREE N2 N2_$1
FREE N2 N1_$2
FREE N2 N1_$1
FREE N2 N2_$2
FREE N2 H2a_$2
FREE N2 H2b_$1
FREE N2 H2c_$1
FREE N2 H2c_$2
FREE H2c H2b_$1
FREE H2c H2c_$1
FREE H2c H2c_$2
BOND
MORE -1
BOND $H
CONF
fmap 2
acta 52
OMIT 0 52
OMIT 0 1 0
REM <olex2.extras>
REM <HklSrc "%.\\hydrMn_P63_310K.hkl">
REM </olex2.extras>

WGHT    0.022200    0.071100
FVAR       5.52937
MN1   3   -0.333333   -0.666667   -0.271999    10.33333    0.02537    0.02537 =
         0.02372    0.00000    0.00000    0.01268
O1    5   -0.313043   -0.430484   -0.426041    11.00000    0.04776    0.04259 =
         0.05620    0.01022   -0.01869    0.02213
O2    5   -0.430342   -0.313064   -0.618141    11.00000    0.04382    0.04794 =
         0.05485    0.01714   -0.01070    0.02282
C1    1   -0.440096   -0.439741   -0.522202    11.00000    0.03828    0.03903 =
         0.05439    0.01247   -0.01062    0.01662
AFIX  43
H1    2   -0.556696   -0.555989   -0.522072    11.00000   -1.20000
AFIX   0
N1    4   -0.065040   -0.024325   -0.342559    10.33333    0.09798    0.08308 =
         0.19886   -0.02422   -0.02868    0.06082
AFIX   7
H1A   2   -0.164970   -0.132218   -0.370458    10.33333   -1.20000
H1B   2   -0.101013    0.053498   -0.303538    10.33333   -1.20000
AFIX   0
N2    4    0.042096   -0.030266   -0.213569    10.33333    0.04925    0.08266 =
         0.22380    0.04465   -0.00787    0.00468
AFIX 133
H2A   2    0.148487   -0.024536   -0.255400    10.33333   -1.20000
H2B   2   -0.025721   -0.139925   -0.155452    10.33333   -1.20000
H2C   2    0.074803    0.069711   -0.144033    10.33333   -1.20000
AFIX   0
HKLF 4

REM  a in P63 #173
REM R1 =  0.0171 for     544 Fo > 4sig(Fo)  and  0.0185 for all     567 data
REM     50 parameters refined using      2 restraints

END

WGHT      0.0222      0.0711

REM Highest difference peak  0.170,  deepest hole -0.183,  1-sigma level  0.035
Q1    1  -0.3442 -0.5022 -0.4992  11.00000  0.05    0.17
Q2    1  -0.4967 -0.3210 -0.5498  11.00000  0.05    0.17
Q3    1  -0.4547 -0.4050 -0.6629  11.00000  0.05    0.15
Q4    1  -0.3940 -0.4364 -0.3956  11.00000  0.05    0.14
Q5    1   0.0000  0.0000 -0.0217  10.33333  0.05    0.12
Q6    1  -0.5797 -0.4813 -0.3988  11.00000  0.05    0.10
Q7    1  -0.5031 -0.6902 -0.4768  11.00000  0.05    0.09
Q8    1  -0.4343 -0.5415 -0.6382  11.00000  0.05    0.08
Q9    1  -0.7457 -0.5524 -0.4468  11.00000  0.05    0.07
Q10   1  -0.1793 -0.1979 -0.1039  11.00000  0.05    0.07
Q11   1  -0.3117 -0.3632 -0.2907  11.00000  0.05    0.07
Q12   1  -0.5154 -0.6005 -0.6855  11.00000  0.05    0.07
Q13   1  -0.0587  0.1280 -0.3491  11.00000  0.05    0.06
Q14   1  -0.6617 -0.4905 -0.5766  11.00000  0.05    0.06
Q15   1  -0.3351 -0.3217 -0.7482  11.00000  0.05    0.06
Q16   1  -0.5751 -0.7319 -0.6185  11.00000  0.05    0.06
Q17   1  -0.2144  0.0027 -0.4535  11.00000  0.05    0.06
Q18   1  -0.2816 -0.4147 -0.3142  11.00000  0.05    0.06
Q19   1  -0.3333 -0.6667 -0.5038  10.33333  0.05    0.06
Q20   1  -0.5930 -0.4763 -0.2721  11.00000  0.05    0.06
;
_shelx_res_checksum              40959

_shelx_hkl_file                  
;
   0   0 -10 531.348 219.378   3
   0   0  -9 57.2716 93.9924   2
   0   0  -8 10189.4 482.227   2
   0   0  -7-28.0576 33.4354   7
   0   0  -7-95.8298 96.9463   2
   0   0  -6 28412.1 744.463   8
   0   0  -6 28323.1 716.915   2
   0   0  -5 69.4643 84.4072   8
   0   0  -5-9.06799 65.5880   2
   0   0  -5-22.1486 78.5980   1
   0   0  -4 4821.16 240.076   8
   0   0  -4 5411.98 262.264   1
   0   0  -3-13.4371 56.9244   8
   0   0  -3-1.31746 58.3230   1
   0   0  -2 102.058 61.5501   1
   0   0  -2 69.4425 46.5599   5
   0   0  -1-0.81719 18.4427   5
   0   0  -1 107.857 30.9001   1
   0   0   1 7.77971 17.9198   5
   0   0   1-14.7919 26.4074   1
   0   0   1-2.03539 26.8564   4
   0   0   2 52.0936 58.8195   4
   0   0   2 149.360 61.7988   1
   0   0   2 67.8882 40.3171   5
   0   0   3 3.81897 41.9140   5
   0   0   3-49.6986 63.0481   1
   0   0   3 55.0370 69.6390   4
   0   0   4 5017.98 203.504   5
   0   0   4 5494.13 260.735   1
   0   0   4 4934.33 253.939   4
   0   0   5 2.50641 49.9550   5
   0   0   5-54.4540 81.1586   4
   0   0   5 33.8450 76.2223   1
   0   0   6 28503.6 768.130   1
   0   0   6 28910.3 791.657   4
   0   0   6 28640.3 634.278   5
   0   0   7 118.105 111.981   1
   0   0   7-38.0562 116.897   4
   0   0   7 25.6030 64.8463   5
   0   0   8 9910.58 538.633   4
   0   0   8 9586.02 515.498   1
   0   0   9-25.9387 103.743   1
   0   0   9-288.469 208.757   4
   0   0  10 657.949 200.251   1
   0   0  10 200.370 132.753   4
   0   1 -10 431.184 166.168   2
  -1   1 -10 210.756 182.222   3
  -1   0 -10 476.215 206.272   3
   0  -1 -10 731.482 244.597   3
   0   1  -9 1555.15 245.969   2
  -1   1  -9 1417.35 217.684   2
  -1   0  -9 1669.16 209.854   2
   0  -1  -9 1775.15 299.487   3
  -1   0  -9 1737.55 297.371   3
   1   0  -9 1367.63 208.363   2
   1  -1  -9 1550.03 195.944   2
  -1   0  -8 1716.94 269.818   3
   0   1  -8 1836.31 243.237   2
   1   0  -8 1564.54 211.306   2
   1  -1  -8 1650.99 195.071   2
  -1   1  -8 1814.13 234.614   2
   0  -1  -8 1867.39 282.714   3
   0  -1  -8 1903.44 189.996   2
  -1   0  -8 1698.11 203.368   2
   1   0  -7 10151.7 428.467   8
   0   1  -7 9431.64 471.028   2
   1  -1  -7 10440.4 434.108   2
   0  -1  -7 10344.2 551.677   3
   1  -1  -7 10323.2 439.493   8
   0  -1  -7 10370.4 406.858   2
   1   0  -7 10376.4 478.037   2
  -1   0  -7 10711.9 539.730   3
   0   1  -7 10449.5 339.371   7
   1   0  -6 4164.03 279.340   2
   0  -1  -6 4106.33 277.091   1
   0  -1  -6 4807.88 304.433   8
   1  -1  -6 4544.80 267.138   8
   1  -1  -6 4158.63 253.554   2
   1  -1  -6 4702.84 302.804   1
   0   1  -6 4675.07 309.943   2
   0  -1  -6 4301.65 107.726   7
  -1   0  -6 4592.59 334.665   3
   1   0  -6 4376.43 259.068   8
  -1   0  -6 4689.35 307.844   1
  -1   1  -6 4754.63 164.141   7
   0  -1  -6 4541.21 242.024   2
   0  -1  -5 17070.4 437.415   2
   1   0  -5 17416.0 464.870   8
   1  -1  -5 16859.7 518.784   1
  -1   1  -5 17697.7 576.456   1
  -1   0  -5 17503.7 564.900   8
   0   1  -5 16624.0 563.254   1
   0  -1  -5 17452.9 509.797   1
   1  -1  -5 16747.5 468.369   2
   1   0  -5 17519.6 560.870   1
  -1   1  -5 17444.1 340.676   7
  -1   0  -5 17606.0 536.278   1
   0  -1  -5 17040.2 529.466   8
   0  -1  -5 17452.6 291.823   7
  -1   1  -5 17367.5 423.237   5
  -1   0  -5 18020.9 495.927   5
   1   0  -5 17274.0 523.855   2
   1  -1  -5 17420.1 478.384   8
   1   0  -4 5977.13 270.128   4
  -1   1  -4 6184.28 218.869   5
  -1   0  -4 6230.21 300.035   3
   1   0  -4 5404.72 277.537   1
  -1   1  -4 6069.84 300.635   1
   0  -1  -4 5794.31 209.644   2
  -1   0  -4 5112.80 259.313   1
   1   0  -4 6123.76 148.568  10
   1   0  -4 5652.10 268.108   2
  -1   1  -4 6291.61 180.762   7
   0  -1  -4 5963.39 249.350   1
   1  -1  -4 5946.64 149.310  10
   1   0  -4 6031.89 233.821   8
   0  -1  -4 6234.93 281.417   8
   1  -1  -4 6149.45 271.975   1
   1  -1  -4 6107.09 243.604   2
   0   1  -4 6331.34 304.507   1
  -1   0  -4 5526.53 250.254   5
   0  -1  -4 6027.39 152.737   7
   1  -1  -4 6589.25 304.079   4
  -1   0  -4 6029.33 298.028   8
   1  -1  -4 6054.05 244.960   8
   1  -1  -3 2906.67 110.380  10
   1  -1  -3 2624.06 158.712   1
  -1   0  -3 2602.05 161.860   1
  -1   0  -3 2515.18 176.628   8
   0  -1  -3 2613.99 115.080   2
  -1   1  -3 2805.38 114.433   7
   0  -1  -3 2714.37 143.464   1
   1   0  -3 2933.00 171.822   2
  -1   1  -3 2704.62 130.637   5
   0  -1  -3 2827.45 105.425  10
   1  -1  -3 2797.17 141.449   8
   0   1  -3 2852.94 184.599   1
   1  -1  -3 2585.59 141.481   2
   1   0  -3 2737.76 178.607   1
  -1   0  -3 2954.95 188.097   3
  -1   0  -3 2675.82 159.863   5
   0   1  -3 2594.12 100.441  10
   0  -1  -3 2689.42 168.779   8
  -1   1  -3 3138.76 190.123   1
   0  -1  -3 2745.03 96.4213   7
   1  -1  -3 2699.20 175.565   4
   1   0  -3 2885.64 162.540   4
   0  -1  -3 2901.59 200.834   3
  -1   1  -2 695.589 97.5612   1
   0  -1  -2 681.899 64.1732   1
   1  -1  -2 619.160 78.7116   1
   0  -1  -2 801.841 112.376   3
   0  -1  -2 669.109 44.2229   2
   1  -1  -2 728.630 67.7046   8
   0   1  -2 743.748 60.5215  10
   1   0  -2 569.558 83.7558   1
   0  -1  -2 692.858 82.8149   8
   1   0  -2 694.297 89.9606   2
  -1   1  -2 748.282 66.9105   7
   1   0  -2 814.638 78.6292   4
   0   1  -2 659.673 96.3986   1
   1  -1  -2 622.472 69.4688   2
   0  -1  -2 757.007 94.9974   5
  -1   0  -2 789.608 95.8381   3
   0  -1  -2 833.999 58.8851   7
   0  -1  -2 787.905 62.7163  10
  -1   0  -2 832.067 94.3845   5
   1  -1  -2 709.686 91.0408   4
  -1   0  -2 781.968 100.036   8
  -1   1  -2 614.028 65.0628   5
  -1   0  -2 577.242 79.6744   1
   1  -1  -1 97358.4 1175.30   4
   0  -1  -1 96713.2 1159.76   4
   0   1  -1 95978.2 1158.64   6
   1  -1  -1 98457.5 1117.14   2
   1   0  -1 97036.6 1171.39   1
  -1   0  -1 100231. 1181.79   5
   0  -1  -1 98072.0 1170.30   8
   0   1  -1 97552.9 1125.95  10
   0  -1  -1 99003.7 1129.28  10
  -1   1  -1 97121.4 1126.47   7
   0  -1  -1 97636.9 1181.30   5
  -1   0  -1 97138.0 1123.26   2
  -1   0  -1 96957.5 1130.17   3
   0  -1  -1 96824.5 1097.59   7
   0   1  -1 98219.1 1167.37   1
  -1   1  -1 99027.1 1120.42   5
   0  -1  -1 97097.7 1193.42   3
   1   0  -1 98993.5 1177.62   2
  -1   0  -1 96281.2 1184.01   8
   1   0  -1 98569.8 1108.89   4
   1   0  -1 98541.8 1107.98   5
  -1   1  -1 99212.4 1196.92   1
   1   0   0 10374.3 192.549   2
  -1   0   0 13336.2 186.705   8
   0   1   0 13140.0 223.888  10
   1  -1   0 14305.1 230.668   2
   0   1   0 13665.2 220.989   3
  -1   1   0 11287.1 200.451   4
   1  -1   0 13802.2 223.447   9
   1   0   0 4626.04 123.805   6
   0   1   0 13372.7 219.668   6
   0  -1   0 8196.70 171.921   3
   0  -1   0 13774.4 158.285   1
   1  -1   0 13994.4 224.902   4
  -1   0   0 13257.4 223.562   5
  -1   0   0 13784.3 220.225   2
  -1   0   0 13450.7 201.213   6
   0  -1   0 13401.7 202.235   5
   1  -1   1 96377.7 1119.92   5
  -1   0   1 96792.6 1108.16   4
  -1   1   1 99619.9 1114.19   2
  -1   1   1 100437. 1182.24   4
   0   1   1 98256.0 1168.07   8
   1   0   1 97528.4 1176.79   5
   1   0   1 97560.1 1134.00   3
   1   0   1 97431.7 1136.09   1
   0  -1   1 97167.5 1124.78  10
   0   1   1 97283.4 1099.54   7
  -1   0   1 97163.9 1181.29   6
   1   0   1 97027.7 1121.12   2
   0  -1   1 98668.3 1167.82   1
  -1   0   1 97877.0 1173.96   2
   0   1   1 99315.8 1162.72   4
   1  -1   1 101228. 1199.18   1
  -1   0   1 97482.3 1106.77   5
   1  -1   1 97737.6 1121.93   7
   0   1   1 98510.3 1179.11   5
   0   1   1 96692.9 1196.35   3
   0  -1   1 96234.2 1154.83   6
   0   1   1 96121.2 1127.35  10
  -1   1   2 620.159 66.0231   2
   1  -1   2 735.785 62.3834   7
   1   0   2 648.240 80.5431   1
  -1   0   2 567.434 90.4669   1
   0   1   2 875.073 103.287   8
   1   0   2 980.354 94.9664   5
   0   1   2 808.772 88.0824   5
   0   1   2 673.306 62.1133   1
   1  -1   2 602.760 66.3838   5
  -1   1   2 690.907 69.0237   8
  -1   1   2 676.987 93.3499   4
   0   1   2 892.957 67.9009  10
   0  -1   2 704.784 101.994   1
  -1   0   2 775.903 79.1360   4
   1  -1   2 587.544 97.5363   1
   0   1   2 1002.10 109.440   4
  -1   0   2 660.615 82.3470   2
   0  -1   2 846.047 63.8502  10
   1   0   3 2960.14 168.877   1
   0  -1   3 2785.84 102.669  10
   0  -1   3 2790.23 187.354   1
   1   0   3 2900.56 163.132   5
  -1   1   3 2692.44 174.570   4
   1  -1   3 2822.72 131.161   5
   0  -1   3 2495.20 144.768   4
  -1   0   3 2571.61 171.395   1
  -1   0   3 2753.73 159.228   4
   0   1   3 2776.37 106.992  10
  -1   1   3 2555.84 155.673   1
  -1   1   3 2653.01 142.494   8
   0   1   3 2976.94 181.422   8
   0   1   3 2606.05 140.279   1
   1  -1   3 3142.19 190.726   1
   0   1   3 3210.72 195.638   4
   0   1   3 2690.63 163.258   5
   1  -1   3 2824.50 102.720  10
  -1   0   4 5779.83 282.710   1
   1   0   4 5871.02 265.030   1
   0  -1   4 6076.11 165.376   5
  -1   1   4 5528.93 278.712   4
  -1   1   4 5447.86 256.113   1
   1  -1   4 5676.90 284.126   1
   0  -1   4 6164.96 262.014   4
   0   1   4 5859.23 261.137   5
   1   0   4 5714.71 249.854   5
  -1   0   4 5832.69 266.523   4
  -1   1   4 5824.21 246.574   5
   1   0   4 5943.13 139.764  10
   1  -1   4 6209.81 221.977   5
   0   1   4 5823.46 243.466   1
  -1   0   4 5913.70 204.816   5
   0  -1   4 5729.37 289.495   1
   0   1   4 5749.89 293.783   4
   0   1   5 18024.2 508.382   1
   1  -1   5 17117.1 422.901   5
  -1   1   5 17391.0 522.070   1
   0  -1   5 17481.8 523.432   4
   0   1   5 18117.6 512.740   5
  -1   0   5 17147.6 409.940   5
   1   0   5 17334.5 524.281   1
  -1   0   5 17568.5 532.456   4
   0  -1   5 17950.7 357.744   5
   0   1   5 17473.4 576.163   4
  -1   1   5 17013.6 477.166   5
   1   0   5 17335.9 489.052   5
   0  -1   5 17981.5 576.586   1
   1   0   5 18049.6 585.121   4
   1  -1   5 16773.9 550.514   1
   1  -1   5 18150.8 560.076   4
  -1   1   5 17160.0 556.118   4
  -1   0   5 17622.6 556.216   1
   0  -1   6 4606.27 190.304   5
  -1   1   6 4303.68 305.330   4
   0  -1   6 4291.20 286.425   4
   1  -1   6 4934.39 237.258   5
  -1   0   6 4667.00 219.090   5
   1   0   6 4162.30 254.878   5
   0  -1   6 3937.11 299.805   1
   0   1   6 4544.80 272.866   5
  -1   1   6 4763.94 264.707   5
  -1   0   6 4331.13 304.795   1
   0   1   6 4097.90 268.109   1
   0   1   6 4630.96 325.875   4
   1  -1   6 4601.47 314.378   4
  -1   0   6 4448.60 296.583   4
   1   0   6 4580.19 301.692   1
   1  -1   6 4211.72 303.894   1
   1   0   6 4175.92 313.222   4
  -1   1   6 4659.44 298.806   1
   1   0   7 9999.17 418.760   5
  -1   1   7 9728.76 472.292   1
  -1   1   7 10276.8 418.207   5
   1   0   7 10640.1 487.534   1
   0  -1   7 10638.8 492.121   4
   1  -1   7 9770.66 496.019   1
   0   1   7 10198.7 523.444   4
   0  -1   7 10735.8 525.125   1
   0  -1   7 10260.0 311.452   5
   0   1   7 9900.32 428.479   5
  -1   1   7 9817.61 499.192   4
   0   1   7 10118.4 457.712   1
   1  -1   7 11152.6 381.658   5
  -1   0   7 10908.7 505.974   4
  -1   0   7 9986.58 495.037   1
   1   0   7 10448.0 530.311   4
   1  -1   7 10400.9 504.828   4
  -1   0   7 10482.2 360.111   5
   0   1   8 1484.06 207.162   1
   1   0   8 1970.22 238.610   1
   1  -1   8 1754.61 243.360   4
  -1   1   8 1927.75 261.701   4
   0  -1   8 1889.96 259.674   1
   1   0   8 1995.41 263.844   4
  -1   0   8 1760.90 239.830   1
   0   1   8 2004.08 262.713   4
   1  -1   8 2026.10 257.563   1
   0  -1   8 1932.35 241.482   4
  -1   1   8 1884.57 236.588   1
  -1   0   8 1700.82 241.257   4
   1   0   9 1688.56 248.593   1
  -1   1   9 1169.19 237.687   4
  -1   0   9 1823.90 273.274   4
   0   1   9 1415.89 224.156   1
   1  -1   9 1688.50 274.566   4
   1   0   9 1790.50 287.433   4
  -1   0   9 1555.97 243.432   1
   1  -1   9 1407.71 231.575   1
   0  -1   9 1463.99 245.492   1
   0   1   9 1473.03 245.320   4
  -1   1   9 1614.48 235.654   1
   0  -1   9 1409.31 239.335   4
   0   1  10 605.467 161.672   1
   0   1  10 86.9276 151.408   4
  -1   0  10 586.385 186.066   4
   1  -1  10 242.338 156.414   1
   1  -1  10 213.427 123.433   4
  -1   1  10 202.209 152.862   4
   0  -1  10 508.121 177.544   1
   1   0  10 435.591 156.398   1
  -1   1  10 492.670 155.908   1
   0  -1  10 328.566 172.824   4
  -1   0  10 180.652 145.916   1
   1   0  10 285.518 163.274   4
  -1   2 -10 2799.05 338.088   2
  -2   1 -10 2937.51 362.935   3
  -1  -1 -10 2782.62 379.215   3
   1   1 -10 2917.41 348.490   2
  -2   1  -9 468.123 199.954   3
   2  -1  -9 409.956 149.562   2
  -1  -1  -9 522.876 224.912   3
   1  -2  -9 413.981 219.991   3
  -2   1  -9 311.281 126.834   2
  -1   2  -9 6.24652 158.070   2
   1   1  -9 396.003 151.486   2
  -1   2  -8 3378.46 330.159   2
  -1  -1  -8 3008.56 328.818   3
   1   1  -8 3382.24 318.133   2
  -1  -1  -8 3098.18 232.284   2
   1  -2  -8 3274.44 354.745   3
  -2   1  -8 3158.31 323.281   3
   1  -2  -8 3529.70 248.624   2
   2  -1  -8 3293.54 289.007   2
   1  -2  -7 23.1702 56.7330   2
   1   1  -7 13.5234 89.8458   2
  -1  -1  -7-7.06536 65.8542   2
  -1   2  -7 50.7059 59.2557   7
  -2   1  -7 87.2388 75.5596   5
   1  -2  -7 48.0191 44.4518   7
   1  -2  -7 31.5880 138.447   3
  -2   1  -7 136.489 134.227   3
   2  -1  -7-39.9558 90.0644   2
   1   1  -7-17.3312 73.5310   8
  -1  -1  -7-48.0299 129.132   3
   2  -1  -7-5.97639 68.9756   8
   1   1  -6 10623.9 482.143   2
  -2   1  -6 10189.5 459.521   3
   1   1  -6 9648.97 198.061  10
  -2   1  -6 9931.79 393.235   5
   2  -1  -6 9669.40 340.457   8
   2  -1  -6 9789.52 214.962  10
   1  -2  -6 10360.3 305.932   7
   2  -1  -6 10175.4 429.350   2
  -1  -1  -6 9680.45 415.753   1
   1  -2  -6 9645.27 406.555   1
   1  -2  -6 10592.0 354.336   2
   1  -2  -6 10827.9 551.563   3
  -1   2  -6 10038.7 333.692   7
   1  -2  -6 9985.87 420.725   8
  -1  -1  -6 11319.1 522.729   3
   1  -2  -5 3053.52 220.776   8
   1  -2  -5 3237.78 170.363   2
   2  -1  -5 3237.66 241.578   4
  -1  -1  -5 3494.76 247.287   5
  -1   2  -5 3519.27 138.579   5
   1  -2  -5 3482.25 178.920   7
  -2   1  -5 3475.83 219.833   5
   2  -1  -5 3454.22 249.104   1
   1  -2  -5 3084.11 206.609   1
  -1  -1  -5 3645.21 284.996   3
   1   1  -5 3447.37 142.310  10
  -1   2  -5 3433.28 191.411   7
  -1  -1  -5 3313.78 262.143   8
   1   1  -5 3371.38 254.868   2
  -1  -1  -5 3203.02 216.167   1
  -2   1  -5 3605.73 265.180   1
   2  -1  -5 3715.76 241.155   2
  -2   1  -5 3457.03 244.190   3
   1  -2  -5 3650.24 151.055  10
   2  -1  -5 3285.78 176.563   8
   2  -1  -4 28799.7 677.363   4
   1  -2  -4 28608.2 628.669   8
  -2   1  -4 29328.9 638.832   3
   1  -2  -4 29425.6 508.936   2
  -1  -1  -4 28789.3 711.496   8
  -1  -1  -4 28525.8 679.560   5
   1  -2  -4 29338.8 592.489   1
   2  -1  -4 28607.6 646.273   2
   1   1  -4 29273.3 718.425   1
   1  -2  -4 29070.0 718.225   4
  -1  -1  -4 27913.0 587.997   1
  -1   2  -4 29298.4 576.861   7
   1   1  -4 29565.0 705.093   2
   2  -1  -4 28721.5 493.293   8
   1  -2  -4 28717.6 548.916   7
   1   1  -4 29691.9 509.042  10
  -1   2  -4 29276.6 732.738   1
  -1  -1  -4 28493.4 713.970   3
   1  -2  -4 29166.9 510.907  10
   2  -1  -4 29400.1 689.563   1
  -2   1  -4 28568.2 702.764   1
  -2   1  -4 29051.6 628.565   5
  -1   2  -4 28760.6 441.418   5
  -1  -1  -3 231.706 86.3426   5
   1  -2  -3 213.140 68.9113   8
  -2   1  -3 126.604 81.5072   1
  -1  -1  -3 107.283 39.2309   2
   1  -2  -3 200.798 53.1631  10
  -1  -1  -3 25.8023 46.8520   1
  -1   2  -3 231.908 39.5110   5
   2  -1  -3 282.389 78.3187   4
   1  -2  -3 203.224 42.9694   2
  -1   2  -3 205.399 89.3754   1
  -2   1  -3 140.285 63.4771   5
   1  -2  -3 196.998 59.2335   7
   1   1  -3 325.017 90.9970   1
   2  -1  -3 186.720 34.2495   8
   1  -2  -3 248.852 80.1254   4
   1  -2  -3 124.806 50.1485   1
   1   1  -3 33.1980 68.9428   2
  -2   1  -3 174.849 69.3312   3
  -1  -1  -3 75.1869 75.6751   8
   1  -2  -3 35.2754 102.481   3
  -1  -1  -3 265.032 90.6401   3
   2  -1  -3 154.441 63.0576   2
   2  -1  -3 233.014 81.7046   1
   1   1  -3 73.4681 41.4646  10
  -1   2  -3 299.869 71.0325   7
  -1   2  -2 104806. 1336.43   7
  -2   1  -2 103412. 1384.88   2
   2  -1  -2 104829. 1363.24   4
   1  -2  -2 103237. 1162.08   2
   1  -2  -2 103011. 1212.76   1
   1   1  -2 102886. 1149.41   5
  -1   2  -2 103104. 1296.30  10
  -1   2  -2 104763. 1176.78   5
   1  -2  -2 105501. 1303.97  10
  -1  -1  -2 103367. 1403.54   8
   1  -2  -2 103013. 1427.12   3
   1   1  -2 102391. 1292.52  10
   1   1  -2 102744. 1381.63   1
  -2   1  -2 101706. 1400.18   1
   1   1  -2 101963. 1172.21   4
   2  -1  -2 102242. 1369.17   1
   1  -2  -2 103586. 1308.68   7
  -1  -1  -2 103019. 1167.91   2
  -1  -1  -2 100559. 1392.79   3
  -2   1  -2 104675. 1221.71   3
   1  -2  -2 105344. 1395.46   4
  -1  -1  -2 99995.2 1200.92   1
  -1   2  -2 103322. 1411.67   1
  -2   1  -2 101586. 1355.03   5
   1   1  -2 106097. 1406.52   2
  -1  -1  -2 102508. 1397.24   5
   2  -1  -2 102604. 1354.91   2
   1  -2  -1 58917.1 846.637   4
  -1  -1  -1 59345.7 877.977   5
  -1  -1  -1 58876.2 731.557   2
   1  -2  -1 58455.0 859.340   3
  -1   2  -1 59591.3 851.677  10
  -2   1  -1 58001.9 872.433   5
   1  -2  -1 59816.4 853.172   7
   1   1  -1 58908.5 832.534   1
   1   1  -1 57982.5 871.714   6
  -1   2  -1 60008.4 757.937   3
   1  -2  -1 59725.0 854.654  10
  -2   1  -1 58963.0 875.027   9
   1   1  -1 58896.4 860.555   2
   2  -1  -1 60087.8 870.847   2
   1   1  -1 60177.6 766.385   5
   1   1  -1 58383.6 663.059   4
   2  -1  -1 58987.5 855.353   4
  -1   2  -1 58568.6 861.486   7
  -1   2  -1 59371.0 761.873   6
  -2   1  -1 59290.0 691.211   3
   1  -2  -1 59215.1 742.079   9
   1   1  -1 59073.2 846.433  10
  -1  -1  -1 60241.1 874.087   3
  -1  -1  -1 57920.0 861.257   8
  -2   1  -1 58448.5 874.191   2
  -1   2  -1 58817.1 862.883   1
   2  -1   0 36758.0 612.606   5
   1   1   0 35305.9 549.977   2
   1   1   0 36928.9 605.102   3
   1  -2   0 36064.1 544.150   1
  -1  -1   0 36470.4 564.284   8
  -1   2   0 35560.3 537.272   3
   1  -2   0 37378.1 540.230   3
   2  -1   0 35682.5 601.282   9
  -1   2   0 35268.9 529.394   6
  -1  -1   0 36292.4 576.643   5
   1   1   0 36091.9 513.536   1
   1   1   0 36324.9 599.316  10
   1  -2   0 35620.6 602.109  10
  -1   2   0 37015.4 551.427   1
   1   1   0 36565.4 578.706   5
  -1   2   0 35308.2 600.547  10
  -1  -1   0 35650.0 549.638   2
  -2   1   0 36211.5 605.644   2
  -2   1   0 35060.2 606.999   5
  -1   2   0 36429.7 545.890   4
  -1  -1   0 37279.9 606.567   6
   1   1   0 36036.3 598.189   6
  -2   1   0 36594.8 601.104   4
  -1   2   0 34439.8 604.438   7
   1  -2   0 35931.6 543.276   4
   1  -2   0 35446.3 601.381   7
   2  -1   0 35530.9 594.817   4
   1   1   0 37588.4 568.193   8
   2  -1   0 35856.2 607.958   2
  -2   1   0 35964.7 486.822   6
   1   1   1 58641.4 864.956   6
  -1   2   1 59257.1 738.023   2
   2  -1   1 60203.9 690.443   3
   1  -2   1 59141.2 759.544   6
  -2   1   1 60169.2 854.738   4
  -1   2   1 58168.4 858.578   3
   2  -1   1 59432.8 881.434   1
  -1  -1   1 59516.5 875.769   6
   1  -2   1 58312.2 858.096   1
  -1  -1   1 58662.5 855.821   2
   1  -2   1 56918.2 762.475   4
   1  -2   1 58351.8 843.295  10
   2  -1   1 59392.5 867.244   5
  -1  -1   1 58202.0 828.393   1
   2  -1   1 58847.5 692.604   6
  -1  -1   1 58022.1 754.905   5
  -1  -1   1 57955.0 660.792   4
   2  -1   1 58891.2 875.268   2
   1  -2   1 58295.0 852.144   7
   1   1   1 58915.2 864.601   8
   1   1   1 60080.1 867.977   3
  -2   1   1 59147.7 857.485   5
   1   1   1 56425.5 834.358  10
  -2   1   1 57662.0 852.259   2
   1   1   1 59541.7 698.898   9
  -1   2   1 58281.2 846.956   4
  -1   2   1 58559.2 851.145   7
   1   1   1 58460.1 870.859   5
  -1   2   1 58684.6 848.316  10
   1   1   1 58181.3 734.867   2
   2  -1   2 101836. 1389.58   1
  -1   2   2 101141. 1318.88   8
   1   1   2 101918. 1404.49   8
   1  -2   2 102784. 1293.72  10
  -1   2   2 103979. 1391.88   4
   1   1   2 102375. 1291.11  10
   1   1   2 102308. 1188.66   1
  -2   1   2 104637. 1349.09   2
  -1  -1   2 102301. 1144.15   5
   1   1   2 104394. 1400.91   3
  -1   2   2 101155. 1301.50  10
   1  -2   2 104967. 1281.95   6
   2  -1   2 103410. 1225.85   7
   1   1   2 103364. 1397.28   5
   1  -2   2 101730. 1401.67   1
  -1  -1   2 101776. 1167.41   4
  -1   2   2 103572. 1149.35   2
  -1  -1   2 103212. 1406.31   6
   1   1   2 100417. 1177.98   7
   1  -2   2 105057. 1330.57   7
  -1  -1   2 101185. 1374.25   1
   2  -1   2 103953. 1359.83   5
  -2   1   2 104421. 1359.40   4
  -1  -1   3 96.2299 43.6446   4
   1   1   3 127.305 26.8012   7
   1   1   3 107.014 43.6394  10
   1   1   3 167.582 72.5008   5
   2  -1   3 284.834 80.3211   1
  -1  -1   3 136.027 28.9125   5
  -2   1   3 342.199 83.8355   4
   1  -2   3 192.942 75.1319   6
  -1  -1   3 184.387 92.0776   6
   1  -2   3 180.032 87.2963   1
  -1   2   3 211.199 74.4421   5
  -1   2   3 217.161 75.4027   8
  -2   1   3 170.642 63.4125   2
   1   1   3 80.2518 77.5255   8
  -1  -1   3 233.928 93.7005   1
   1  -2   3 238.148 56.4967  10
   2  -1   3 289.262 76.6429   5
  -1   2   3 157.040 39.3705   2
   1   1   3 196.800 57.0427   1
   1  -2   3 227.524 38.2967   5
   2  -1   3 216.617 42.5914   7
  -1   2   3 265.235 89.4250   4
  -1  -1   4 30221.4 723.679   1
   1  -2   4 29363.6 448.497   5
   2  -1   4 29022.2 625.214   5
  -1  -1   4 28885.8 406.708   5
   1   1   4 30412.3 735.222   4
   1  -2   4 29342.7 505.944  10
  -1   2   4 28893.8 639.947   8
  -2   1   4 29846.2 659.556   2
  -2   1   4 29772.9 687.094   4
  -1  -1   4 29149.5 591.451   4
   1  -2   4 28860.3 721.106   1
  -1   2   4 27777.3 661.590   5
  -1   2   4 29404.7 716.290   4
   2  -1   4 29758.7 704.531   1
   1   1   4 29807.7 512.560  10
  -1  -1   4 29630.4 414.129   5
   1   1   4 28868.9 581.749   1
   1   1   4 30860.9 696.090   5
  -2   1   5 3707.42 256.151   4
   1   1   5 3089.23 231.223   5
   1   1   5 3078.69 204.555   1
  -1  -1   5 3410.48 120.712   5
   2  -1   5 3603.61 222.196   5
   1   1   5 3588.94 146.116  10
   1  -2   5 3328.77 136.328  10
  -1  -1   5 3444.90 269.126   1
  -1  -1   5 3415.01 219.061   4
   2  -1   5 3373.97 255.942   1
  -2   1   5 3336.40 246.348   1
   1   1   5 3242.44 263.739   4
   1  -2   5 3187.97 258.142   1
  -1   2   5 3130.23 230.872   5
  -1   2   5 3248.09 261.872   4
  -1   2   5 3111.08 206.767   1
  -1  -1   5 3485.48 123.404   5
   1  -2   5 3533.51 140.154   5
  -1  -1   6 10294.9 243.846   5
  -1   2   6 9965.34 409.189   1
  -1  -1   6 10369.2 242.460   5
  -1   2   6 9467.74 475.301   4
  -1  -1   6 10361.1 420.356   4
   2  -1   6 9940.02 393.476   5
   1  -2   6 10694.9 447.670   4
   1  -2   6 9941.82 263.878   5
  -2   1   6 10101.7 460.634   4
   1   1   6 10290.0 442.078   5
   2  -1   6 10127.8 467.716   1
   1  -2   6 10131.7 489.757   1
  -2   1   6 9601.13 369.796   5
  -1   2   6 10456.8 438.957   5
   1   1   6 10121.6 410.566   1
   1   1   6 9846.29 491.739   4
  -1  -1   6 10457.4 487.394   1
   1   1   6 9692.48 198.723  10
  -2   1   6 10904.2 473.563   1
   1  -2   7-63.1165 107.998   4
   1   1   7 27.2247 122.478   4
  -2   1   7 40.7770 91.5987   1
  -1  -1   7-34.5998 88.6653   4
  -1  -1   7-161.207 124.438   1
   1  -2   7-66.3263 119.413   1
  -1   2   7-68.4040 107.061   4
  -2   1   7-13.6118 74.4955   5
  -1  -1   7-12.7284 28.8554   5
   2  -1   7-42.2168 79.3442   5
  -1  -1   7-6.75177 21.6012   5
  -1   2   7 96.0968 98.6605   1
   1  -2   7-11.9360 39.9260   5
  -2   1   7 72.1382 93.3431   4
   2  -1   7 74.2617 114.295   4
   1   1   7-31.4536 92.0588   1
   2  -1   7-124.508 104.304   1
  -1  -1   8 3200.33 291.988   4
   1  -2   8 3512.42 317.783   4
  -1   2   8 3425.28 339.479   4
  -2   1   8 3252.00 314.675   4
   1   1   8 3502.74 348.539   4
   1  -2   8 3173.69 326.956   1
   1   1   8 3001.17 272.360   1
  -1   2   8 3299.76 286.605   1
  -1  -1   8 2882.45 311.345   1
   2  -1   8 3409.44 336.659   4
   2  -1   8 2927.51 300.777   1
  -1  -1   9 417.935 155.396   4
   1   1   9 257.679 112.999   1
  -1  -1   9 467.077 164.738   1
  -1   2   9 630.218 192.053   4
   2  -1   9 618.523 208.485   4
  -2   1   9 450.400 202.539   4
   1  -2   9 566.666 175.211   1
   1   1   9 494.319 185.499   4
   1  -2   9 435.646 171.603   4
   2  -1   9 385.413 162.635   1
   1  -2  10 3236.14 344.787   4
   2  -1  10 3777.40 415.544   4
   2  -1  10 3039.68 348.267   1
  -1  -1  10 2733.96 326.092   4
  -2   1  10 2095.96 315.432   4
  -2   0 -10 833.733 222.928   3
   2   0 -10 762.709 202.696   2
  -2   2 -10 411.163 229.682   3
   0   2 -10 1104.14 236.204   2
  -2   2 -10 1004.40 219.792   2
  -2   2  -9 3493.32 354.519   3
  -2   0  -9 2631.74 335.874   3
   0  -2  -9 2772.59 365.473   3
   0   2  -9 3132.33 369.480   2
   2   0  -9 3018.69 335.316   2
   0   2  -8 71.1053 110.672   2
  -2   0  -8 141.144 157.247   3
   2  -2  -8 163.783 86.8095   2
   2   0  -8-22.0754 132.090   2
   0  -2  -8 142.138 132.980   3
   0   2  -8 158.965 82.0917   7
   2   0  -7 2792.58 265.145   2
  -2   0  -7 2757.10 249.589   5
   2  -2  -7 2861.45 227.478   2
  -2   2  -7 3031.93 198.487   5
   0   2  -7 2436.04 197.555   7
  -2   0  -7 2569.45 272.998   3
   0  -2  -7 2743.94 301.366   3
   0  -2  -7 3063.46 184.942   2
   0   2  -7 2551.29 276.399   2
   2  -2  -7 3139.07 232.503   8
   0  -2  -7 3192.53 252.180   1
   2   0  -7 2653.12 194.930   8
   0  -2  -6 8095.54 267.704   2
   2  -2  -6 7955.67 348.149   2
  -2   0  -6 7047.16 381.373   1
  -2   0  -6 8470.87 437.245   3
   2  -2  -6 7974.18 225.630  10
   0   2  -6 7976.48 432.985   2
   0  -2  -6 7920.29 348.571   1
  -2   0  -6 7041.69 369.757   5
  -2   2  -6 8118.77 310.311   5
   0  -2  -6 8685.10 478.905   3
  -2   2  -6 7848.34 255.860   7
   2   0  -6 7698.20 405.644   2
   2   0  -6 7821.42 295.970   8
   0   2  -6 8415.84 346.446   7
   2   0  -6 8245.96 222.352  10
   2  -2  -6 7199.54 319.315   8
   2  -2  -5 10300.1 366.974   2
   2   0  -5 10850.5 444.970   2
   0  -2  -5 10527.5 266.089   2
   2   0  -5 10740.1 303.681   8
   0  -2  -5 9996.11 349.545   1
   0  -2  -5 11039.8 241.867   7
   2   0  -5 10462.2 288.402  10
   2  -2  -5 10510.5 290.448  10
  -2   0  -5 10384.3 437.292   3
  -2   2  -5 10620.9 304.747   7
   2  -2  -5 10075.9 402.425   1
  -2   2  -5 10291.9 334.308   5
   2  -2  -5 10061.9 344.197   8
   2   0  -5 10986.7 411.614   4
  -2   0  -5 11243.0 432.843   1
   0  -2  -5 10501.8 436.509   8
   0  -2  -5 11268.1 504.454   3
   0   2  -5 10646.2 283.566  10
   0   2  -5 11361.9 390.648   7
  -2   0  -5 10689.3 421.650   5
  -2   0  -4 1652.92 165.171   3
   0  -2  -4 1427.05 112.330   1
   2   0  -4 1360.19 91.6036   8
   2   0  -4 1479.11 139.152   4
   2  -2  -4 1218.46 122.549   2
   0  -2  -4 1232.65 173.106   3
  -2   2  -4 1340.74 163.611   1
   0   2  -4 1574.70 112.600  10
   2   0  -4 1077.61 135.776   2
  -2   2  -4 1173.21 107.024   7
   0  -2  -4 1643.93 117.620  10
  -2   0  -4 1251.70 128.086   2
   2  -2  -4 1172.65 104.264  10
  -2   0  -4 1321.51 142.229   1
   2  -2  -4 1167.48 110.777   8
   0  -2  -4 1531.99 93.1304   7
   2   0  -4 1496.80 167.795   1
   0   2  -4 1240.54 162.684   1
   2  -2  -4 1134.95 131.069   1
  -2   2  -4 1327.72 116.568   5
   2  -2  -4 1258.91 152.306   4
   0  -2  -4 1233.68 68.2173   2
  -2   0  -4 1396.60 152.292   5
   0  -2  -4 1492.96 155.952   8
  -2   0  -4 1818.61 187.514   8
  -2   2  -3 62308.5 901.911   7
   0  -2  -3 60049.8 1023.00   8
   0  -2  -3 61210.4 801.569   1
   2   0  -3 61636.3 1049.49   1
   2  -2  -3 62473.5 1053.39   4
   0   2  -3 62112.8 901.393  10
   2  -2  -3 61053.8 920.354   2
  -2   2  -3 61164.9 906.020   5
  -2   0  -3 61536.7 1034.53   5
   0  -2  -3 59064.5 1083.85   3
  -2   0  -3 60984.0 991.294   3
  -2   0  -3 59619.5 935.732   2
   2   0  -3 60378.7 934.319   4
   0   2  -3 62678.6 1066.50   1
   2  -2  -3 62955.4 971.000   1
  -2   0  -3 60962.9 983.322   1
   2   0  -3 62166.3 1040.77   2
   0  -2  -3 62456.1 838.484   7
  -2   0  -3 62040.5 1085.59   8
   0  -2  -3 60281.1 902.196  10
  -2   2  -3 61600.1 1081.12   1
   0  -2  -2 21927.6 518.336   5
   0   2  -2 20939.6 303.493   5
   2  -2  -2 21884.0 514.420   4
   2  -2  -2 22382.1 454.891   2
   0  -2  -2 21872.7 506.857   8
  -2   0  -2 23250.4 464.841   2
   0   2  -2 22097.4 498.380   6
   0  -2  -2 21697.2 422.555   7
   0  -2  -2 21943.8 502.675   4
  -2   2  -2 21859.6 454.248   5
   2   0  -2 22577.5 519.584   2
   2   0  -2 23032.5 519.674   1
   0   2  -2 22184.3 461.741  10
  -2   0  -2 22054.5 515.606   5
  -2   2  -2 23906.9 557.117   1
  -2   2  -2 21895.7 459.639   7
   0   2  -2 23641.7 519.339   1
   0  -2  -2 22541.5 538.419   3
   0  -2  -2 22330.2 463.159  10
  -2   0  -2 21891.2 527.260   8
  -2   0  -2 22534.7 464.366   9
  -2   0  -2 22893.1 472.343   3
   2   0  -2 23021.3 443.042   4
   0  -2  -1 14173.4 355.744  10
   0   2  -1 13351.6 346.860  10
  -2   0  -1 13455.3 321.321   3
  -2   2  -1 14012.3 379.457   2
   2   0  -1 13631.6 355.923   6
   2   0  -1 13184.8 358.880   2
   0  -2  -1 13795.1 370.232   3
  -2   2  -1 13828.0 380.335   1
   0  -2  -1 14193.5 368.831   5
  -2   0  -1 13410.3 368.764   5
   0   2  -1 13632.9 344.156   6
   0   2  -1 13387.0 275.008   5
   2   0  -1 13384.2 333.756   5
  -2   0  -1 13359.1 328.582   2
  -2   0  -1 13129.0 348.750   8
   2  -2  -1 13920.2 336.551   2
   0   2  -1 13710.3 364.033   7
   0  -2  -1 13367.7 319.790   4
   2   0  -1 13677.9 237.344   8
   2   0  -1 13875.2 309.352   4
   2  -2  -1 13755.7 359.651   4
   0   2  -1 14051.8 332.210   1
   0  -2  -1 13560.6 329.329   7
  -2   2  -1 13948.4 345.266   5
   0  -2   0 12942.4 333.427   3
   2  -2   0 12830.1 244.614   3
   0   2   0 13477.1 340.654   3
   0   2   0 13349.4 318.768   5
   2  -2   0 12513.9 346.183   7
  -2   2   0 12364.8 330.919   9
   0  -2   0 13636.8 350.466  10
  -2   0   0 13214.5 314.890   6
   0   2   0 13600.7 253.113   4
   2  -2   0 13346.8 338.114   9
  -2   0   0 13079.0 344.627   5
  -2   2   0 13287.5 342.112   2
   0  -2   0 13679.7 345.026   6
   2   0   0 13541.6 319.700   4
  -2   2   0 12910.7 334.170   4
  -2   0   0 13003.9 289.882   8
   2  -2   0 13341.8 340.221   4
   2   0   0 12871.6 336.316   2
  -2   0   0 13791.6 338.719   2
   2   0   0 12968.2 314.366   6
   2   0   0 13156.5 297.655   8
   0   2   0 13668.0 348.943   7
   2   0   0 13150.8 345.509   5
   2  -2   0 13609.5 349.681   2
   0  -2   0 13145.2 250.776   4
   0  -2   0 13403.6 255.835   1
   0   2   0 13512.4 347.912  10
   0   2   0 13576.8 339.812   6
   0   2   0 13803.1 260.794   1
   0   2   1 13603.7 322.548   4
  -2   0   1 13916.7 337.630   5
  -2   0   1 13415.5 307.093   4
   2   0   1 13597.5 370.774   5
  -2   2   1 13602.6 329.549   2
   2  -2   1 13692.6 349.930   4
  -2   0   1 13833.4 362.172   2
   2   0   1 13420.3 334.298   2
   2   0   1 13481.3 321.674   6
   0   2   1 13681.3 368.360   3
   0   2   1 13243.8 331.684   7
  -2   2   1 13921.7 366.204   4
   2   0   1 13547.6 324.179   9
   0  -2   1 13672.3 348.842   6
   2   0   1 13994.3 322.498   3
  -2   0   1 13592.7 232.400   8
   0   2   1 13581.2 360.402   5
   2  -2   1 13739.1 376.482   1
  -2   0   1 13470.4 353.743   6
   0  -2   1 13834.2 329.159   1
   0   2   1 13461.4 229.163   2
   0   2   1 13657.8 350.180  10
   0  -2   1 12949.5 340.748  10
   2  -2   1 13923.3 352.625   7
   0   2   1 13439.0 358.619   8
  -2   0   2 22535.2 445.920   4
   2  -2   2 21486.0 451.001   5
  -2   0   2 22769.6 520.451   2
   0   2   2 22350.6 436.344   7
   2  -2   2 23476.7 547.930   1
   0   2   2 22592.8 505.334   4
   0   2   2 22550.9 549.251   3
  -2   2   2 23192.1 527.861   4
   0   2   2 22527.7 522.014   5
   2   0   2 23375.4 476.980   1
   0  -2   2 21888.2 495.543   6
  -2   0   2 22017.0 526.240   6
   0  -2   2 22609.3 465.726  10
   2   0   2 22470.4 463.016   2
   2  -2   2 21909.5 456.015   7
   0  -2   2 24062.3 525.731   1
  -2   2   2 22932.5 449.007   2
   2   0   2 22577.8 522.368   5
  -2   0   2 22280.2 442.486   5
   2   0   2 22065.3 468.679   3
   0   2   2 21748.0 509.915   8
   0   2   2 22188.6 465.458  10
  -2   2   2 22643.0 412.889   8
   0   2   3 62515.8 912.411  10
  -2   0   3 61759.3 1041.39   2
  -2   2   3 61544.3 877.910   8
   2   0   3 61733.6 1034.06   5
  -2   0   3 62148.1 946.729   4
   0   2   3 61425.4 796.718   1
  -2   0   3 60563.2 879.874   5
   2  -2   3 61446.0 908.107   5
   0  -2   3 61547.3 841.032   4
   0   2   3 60783.9 1055.68   4
  -2   2   3 60841.7 911.560   2
   2  -2   3 61761.7 895.777   7
   2  -2   3 62165.2 1081.95   1
   0   2   3 61303.7 1046.60   5
   0   2   3 61196.5 1038.40   8
   0  -2   3 62779.7 905.973  10
   0  -2   3 60962.8 1054.46   1
  -2   0   3 60382.6 1043.28   1
   0  -2   3 62175.6 1029.64   6
  -2   2   3 61947.3 1059.32   4
   2   0   3 61961.3 972.228   1
  -2   0   4 1352.60 139.690   4
  -2   0   4 1556.10 117.874   5
  -2   2   4 1190.33 116.928   8
  -2   2   4 1296.81 159.464   4
   0   2   4 1509.68 114.856  10
   2  -2   4 1404.17 168.679   1
   2  -2   4 1330.68 107.751  10
   0   2   4 1436.74 150.755   5
   0  -2   4 1720.49 173.807   6
   2  -2   4 1265.82 115.489   5
   0   2   4 1393.86 109.618   1
   2   0   4 1461.52 153.989   5
   2   0   4 1384.13 146.130   1
   0   2   4 1491.40 167.044   4
   0  -2   4 1414.05 122.742   4
  -2   2   4 1073.91 114.794   2
   0   2   4 1475.69 169.250   8
  -2   0   4 1382.43 164.775   1
   0  -2   4 1671.91 118.134  10
   0  -2   4 1342.77 165.919   1
   0  -2   5 11004.0 381.781   4
   0   2   5 10495.5 346.625   1
   0   2   5 10980.2 478.440   4
  -2   2   5 10238.4 402.390   5
  -2   0   5 10444.1 452.115   1
   2   0   5 10816.2 416.769   1
   0  -2   5 10147.5 459.916   1
   0   2   5 10303.4 437.849   8
   0   2   5 11203.6 299.988  10
   0  -2   5 11045.5 464.899   6
   2   0   5 11321.7 291.629  10
  -2   0   5 10763.8 319.708   5
  -2   0   5 10879.5 411.477   4
  -2   2   5 10210.0 448.434   4
   2  -2   5 9768.10 446.205   1
   2   0   5 10655.3 419.513   5
   2  -2   5 10371.3 335.049   5
   0   2   5 10244.2 429.447   5
   2  -2   5 10832.1 284.138  10
  -2   0   6 8194.27 394.464   4
   0  -2   6 7331.75 425.490   1
   0  -2   6 8197.79 436.755   6
   0   2   6 7741.64 337.972   1
  -2   0   6 7782.13 282.646   5
   2  -2   6 7980.91 309.987   5
   2   0   6 7711.39 383.668   5
   2  -2   6 6995.30 412.346   1
   0  -2   6 7855.50 360.976   4
   2   0   6 7543.13 378.522   1
  -2   2   6 7808.81 428.210   4
  -2   0   6 7883.91 425.614   1
   2  -2   6 7753.25 198.600  10
  -2   2   6 7484.09 365.797   5
   0   2   6 8254.67 450.127   4
   2   0   6 7903.37 207.344  10
   2   0   6 7575.19 438.121   4
   0  -2   7 2534.46 231.534   4
  -2   0   7 2259.89 235.404   4
   2  -2   7 2911.18 296.295   1
   0   2   7 2870.02 234.372   1
   0   2   7 2881.44 297.551   4
   2   0   7 3060.45 305.714   4
  -2   0   7 2520.28 269.419   1
  -2   2   7 3162.19 305.709   4
   0  -2   7 2976.85 299.318   1
   2  -2   7 3113.41 202.202   5
   2   0   7 2619.42 250.283   1
   2  -2   7 2863.62 275.194   4
  -2   0   7 2645.81 173.744   5
  -2   2   8 348.169 155.063   4
   0   2   8 64.5168 120.786   4
   0  -2   8-144.043 155.247   6
  -2   0   8 103.960 113.084   1
   0   2   8 265.716 121.857   1
   2   0   8 121.157 116.237   1
  -2   0   8 127.322 119.752   4
   0  -2   8 73.0134 91.3074   4
   2  -2   8 151.306 117.669   4
   0  -2   8 73.9237 122.097   1
   2  -2   8 56.2078 135.580   1
   2   0   8 116.212 151.567   4
  -2   0   9 3325.02 348.115   1
  -2   2   9 3009.60 341.250   4
   2  -2   9 3278.78 355.661   4
   2   0   9 3831.46 395.276   4
   2   0   9 3284.76 327.586   1
  -2   0   9 3212.37 336.039   4
   0  -2   9 3253.55 307.617   4
   0   2   9 3249.26 292.646   1
   0  -2   9 3338.60 364.030   6
   2  -2   9 2996.75 340.707   1
   0  -2   9 2757.66 339.659   1
   0   2   9 3323.21 375.301   4
   2   0  10 765.550 202.128   1
   0  -2  10 1450.41 295.368   6
   2  -2  10 820.630 212.486   4
   2  -2  10 802.898 207.410   1
  -2   0  10 777.251 213.558   4
   2   1 -10 358.716 158.007   2
  -2  -1 -10 678.836 229.911   3
  -1   3 -10 739.788 201.229   2
   2   1  -9 3571.33 377.637   2
   3  -2  -9 3420.26 309.714   2
  -3   2  -9 3282.13 338.787   3
  -1   3  -9 3092.98 360.388   2
  -2  -1  -9 3484.27 412.927   3
   1  -3  -9 2728.18 372.857   3
  -3   2  -8 2116.98 254.997   3
  -3   2  -8 2148.74 207.135   5
   2   1  -8 2059.10 283.908   2
  -2  -1  -8 1856.67 274.505   3
   3  -2  -8 2174.92 242.097   2
  -1   3  -8 1956.05 283.016   2
   1  -3  -8 2049.13 302.720   3
  -1   3  -8 1637.68 174.197   7
   1  -3  -7 2247.70 143.317   2
  -1   3  -7 2264.13 199.881   7
   1  -3  -7 2342.31 215.146   1
   3  -2  -7 2409.73 133.226  10
  -2  -1  -7 2730.64 266.390   5
   2   1  -7 2728.67 283.803   2
   3  -2  -7 2508.34 234.722   2
  -3   2  -7 2308.71 237.383   3
  -2  -1  -7 2498.57 195.190   2
  -2  -1  -7 2384.29 274.944   3
   1  -3  -7 3207.92 339.379   3
  -3   2  -7 2618.44 219.511   5
   1  -3  -6 1136.10 111.048  10
   2   1  -6 1334.18 116.441  10
   1  -3  -6 1010.74 136.043   1
   2   1  -6 1374.23 201.818   2
  -2  -1  -6 1297.88 204.254   3
   1  -3  -6 1207.91 94.8106   2
  -2  -1  -6 1115.53 184.055   5
   3  -2  -6 1303.87 174.325   2
   1  -3  -6 1227.40 115.807   7
   1  -3  -6 1173.09 215.458   3
  -1   3  -6 1327.33 155.867   7
  -3   2  -6 1125.27 148.671   5
   3  -2  -6 1181.00 120.323  10
  -3   2  -6 1094.10 163.345   3
  -2  -1  -6 897.311 149.632   1
  -2  -1  -6 971.918 122.139   2
   3  -2  -5 11110.8 432.132   2
  -2  -1  -5 10937.7 474.209   5
  -1   3  -5 12101.9 424.677   7
   2   1  -5 11258.4 347.651  10
   1  -3  -5 11022.5 357.172   1
  -2  -1  -5 10574.7 397.602   1
   1  -3  -5 11682.3 543.271   3
   1  -3  -5 11907.8 362.475  10
  -2  -1  -5 10876.7 480.916   3
   1  -3  -5 10942.8 444.933   8
   2   1  -5 11584.0 495.329   2
  -3   2  -5 11003.8 409.726   5
   1  -3  -5 11970.2 356.735   7
  -2  -1  -5 11083.3 347.783   2
  -3   2  -5 10695.3 392.149   3
   1  -3  -5 11415.7 251.044   2
  -3   2  -4 18741.4 611.442   1
   1  -3  -4 18397.7 293.553   2
   1  -3  -4 19721.7 607.949   4
  -1   3  -4 19225.6 617.482   1
   1  -3  -4 18806.1 464.659   7
   2   1  -4 19444.7 464.552   4
   2   1  -4 19096.9 601.142   1
  -2  -1  -4 19782.9 621.541   8
   3  -2  -4 19455.5 541.774   2
  -3   2  -4 19597.2 531.349   5
   1  -3  -4 18205.4 629.362   3
  -2  -1  -4 19488.9 595.464   5
  -1   3  -4 19313.4 480.694  10
  -2  -1  -4 19593.2 590.655   3
  -1   3  -4 18967.8 526.616   7
   1  -3  -4 19180.0 422.305   1
   3  -2  -4 20264.3 599.702   4
  -3   2  -4 19193.3 459.842   3
   1  -3  -4 19118.7 556.876   8
   2   1  -4 18952.3 474.383  10
   3  -2  -4 20015.0 574.059   1
   2   1  -4 19700.8 608.062   2
   1  -3  -4 18838.8 475.232  10
  -2  -1  -4 18347.8 484.962   1
  -2  -1  -4 19073.8 437.429   2
   2   1  -3 40400.3 648.041   4
  -2  -1  -3 40126.2 866.209   8
  -2  -1  -3 40794.1 659.283   2
  -2  -1  -3 40116.2 851.049   5
   2   1  -3 39891.7 749.502  10
  -2  -1  -3 38815.5 817.432   3
   1  -3  -3 40828.9 600.418   1
  -2  -1  -3 40409.9 680.484   9
  -3   2  -3 39964.8 874.365   1
  -1   3  -3 39894.5 742.000  10
  -1   3  -3 41184.6 867.754   1
  -1   3  -3 40662.1 546.389   5
   1  -3  -3 41437.3 758.388  10
  -3   2  -3 39244.1 779.695   5
   3  -2  -3 40455.2 812.489   1
   3  -2  -3 40481.4 792.378   2
   1  -3  -3 40513.8 736.981   7
  -3   2  -3 39582.3 849.458   2
  -3   2  -3 40438.6 614.383   3
   1  -3  -3 41440.1 852.445   4
  -1   3  -3 40150.2 797.312   7
   2   1  -3 39781.9 848.580   2
   2   1  -3 38823.3 835.225   1
   3  -2  -3 40922.7 838.664   4
   1  -3  -3 40149.3 879.567   3
  -1   3  -2 35048.7 652.475   6
  -2  -1  -2 35742.2 596.455   2
   2   1  -2 36397.3 759.313   6
   2   1  -2 34432.8 600.216   5
  -1   3  -2 35714.7 720.682   7
   2   1  -2 34697.3 537.340   4
   2   1  -2 34379.6 726.874   2
  -3   2  -2 36373.2 716.396   5
  -2  -1  -2 36213.9 743.809   8
  -1   3  -2 36405.7 734.879   1
   1  -3  -2 33978.1 701.238   4
   2   1  -2 36027.9 719.037   1
  -3   2  -2 33998.4 451.832   3
   3  -2  -2 34532.0 717.920   4
   1  -3  -2 36075.5 680.622   7
  -2  -1  -2 35457.1 751.274   5
  -2  -1  -2 35869.7 717.368   3
   1  -3  -2 35812.4 508.247   9
  -3   2  -2 36734.8 763.360   9
  -3   2  -2 36479.6 759.549   2
   3  -2  -2 36084.9 709.290   2
   1  -3  -2 35632.0 692.674  10
   1  -3  -2 35875.4 750.748   3
  -1   3  -2 35571.4 687.878  10
   1  -3  -1 27790.2 588.800   3
  -2  -1  -1 28835.3 594.498   8
  -1   3  -1 28110.0 618.194   7
  -2  -1  -1 29997.4 609.565   3
  -2  -1  -1 28506.8 528.658   2
   1  -3  -1 27144.0 586.867   7
   2   1  -1 29934.7 504.111   8
  -2  -1  -1 29148.9 627.394   5
  -3   2  -1 28394.2 626.188   9
   2   1  -1 28230.4 598.346   2
  -1   3  -1 27551.1 595.488  10
   1  -3  -1 29035.2 450.326   1
   2   1  -1 29772.1 461.950   4
   3  -2  -1 28601.7 612.221   4
  -3   2  -1 28736.4 613.632   5
  -1   3  -1 27659.8 565.440   1
   3  -2  -1 28787.8 608.974   2
   1  -3  -1 28058.0 554.934   4
  -1   3  -1 28226.2 468.474   4
   2   1  -1 28950.8 557.023   5
  -3   2  -1 28972.5 635.600   2
   1  -3  -1 27091.2 594.593  10
   2   1  -1 28394.2 571.382   1
  -1   3  -1 26967.3 536.468   6
   2   1  -1 30227.0 629.198   6
  -1   3  -1 27821.9 540.519   3
   1  -3   0 1062.05 108.710   3
   3  -2   0 1004.36 125.224   2
   2   1   0 1081.83 113.943   3
   3  -2   0 1064.77 120.213   4
   2   1   0 1016.97 107.948   2
   1  -3   0 1153.86 93.1980   4
  -3   2   0 1057.56 69.7939   6
  -2  -1   0 1004.22 100.021   8
   2   1   0 903.066 99.9125   8
   3  -2   0 972.801 110.301   9
   2   1   0 869.316 105.024   6
   1  -3   0 1168.41 123.138  10
  -1   3   0 1094.54 121.595  10
  -1   3   0 1057.01 104.112   6
  -3   2   0 969.272 116.312   4
  -2  -1   0 927.454 111.489   5
  -1   3   0 894.406 87.7873   1
  -2  -1   0 1037.27 104.737   2
   2   1   0 910.720 111.288   5
  -3   2   0 881.131 118.316   2
  -3   2   0 1170.65 141.070   5
   1  -3   0 1223.76 125.345   7
  -1   3   0 1166.00 96.2378   4
  -2  -1   0 921.049 117.703   6
   1  -3   0 821.312 86.4615   1
  -1   3   0 1245.00 141.347   7
  -1   3   0 1169.06 110.654   3
   3  -2   1 25521.5 579.032   4
   2   1   1 26320.9 566.087   8
  -1   3   1 23503.0 511.467   4
  -3   2   1 25620.5 568.854   2
   1  -3   1 25768.0 530.140   1
  -1   3   1 24497.0 558.404   7
   2   1   1 26655.3 591.227   5
   2   1   1 26068.2 563.751   6
  -1   3   1 24998.4 408.004   9
   2   1   1 25721.1 497.978   2
   2   1   1 25872.6 560.839   3
   1  -3   1 25341.2 564.436  10
  -3   2   1 25092.0 569.540   4
   3  -2   1 25547.8 591.221   2
   3  -2   1 25413.9 575.113   5
   1  -3   1 24955.3 433.194   4
  -3   2   1 25822.7 582.763   5
  -1   3   1 25352.0 567.394  10
   1  -3   1 24185.4 563.773   7
   3  -2   1 25910.7 596.449   1
  -2  -1   1 25746.2 516.941   5
  -1   3   1 25209.2 563.284   3
   2   1   1 25672.5 464.550   9
  -2  -1   1 26337.7 584.556   6
  -2  -1   1 26064.0 565.248   2
   1  -3   1 24287.6 503.457   6
   2   1   2 39153.8 761.173   3
  -1   3   2 37574.2 737.382   8
  -1   3   2 37789.0 770.582   5
  -1   3   2 38224.2 731.778  10
  -2  -1   2 37318.5 624.860   5
   1  -3   2 37981.0 722.850  10
  -3   2   2 38648.6 732.825   2
   2   1   2 37654.8 719.218  10
  -2  -1   2 38858.7 786.422   6
  -1   3   2 38486.8 721.566   7
   2   1   2 38767.9 785.591   5
  -1   3   2 38075.3 506.740   2
   1  -3   2 37813.3 684.447   6
   2   1   2 37317.8 623.610   2
  -2  -1   2 38569.1 775.476   2
   3  -2   2 37771.5 781.763   1
   2   1   2 37101.0 775.100   8
   2   1   2 38454.2 753.247   6
   1  -3   2 38579.5 753.778   1
   3  -2   2 37767.4 687.740   7
  -1   3   2 37853.8 741.373   4
  -1   3   2 38582.1 791.251   3
  -3   2   2 37817.7 760.277   4
   2   1   2 38409.3 620.447   1
   3  -2   2 37494.3 739.932   5
   1  -3   2 37991.0 589.274   4
  -2  -1   2 37735.8 570.267   4
  -2  -1   3 40129.5 839.850   1
   3  -2   3 39984.7 789.035   5
   2   1   3 40267.1 868.964   8
  -3   2   3 40678.1 787.566   2
   2   1   3 40235.5 833.882   3
   3  -2   3 39108.5 852.743   1
  -2  -1   3 39977.9 847.505   2
  -2  -1   3 40735.5 632.731   5
  -1   3   3 41573.3 856.728   5
  -2  -1   3 38574.8 856.299   6
   1  -3   3 40585.3 774.420   6
   2   1   3 41659.7 862.419   5
   1  -3   3 41957.4 758.607  10
  -1   3   3 41733.4 851.324   4
   1  -3   3 41485.5 862.467   1
   2   1   3 40405.5 752.860  10
  -1   3   3 40982.1 763.737  10
  -3   2   3 40550.9 835.273   4
  -1   3   3 41060.9 813.876   8
  -2  -1   3 40482.1 654.616   4
  -3   2   3 41519.4 572.354   8
   3  -2   3 39736.4 698.481   7
   2   1   3 40269.2 686.399   1
   1  -3   4 18094.6 527.319   6
   2   1   4 18344.4 576.739   5
   1  -3   4 17864.8 455.471  10
  -1   3   4 17683.1 577.360   4
  -2  -1   4 18130.9 443.684   4
   3  -2   4 18107.8 410.004   7
  -3   2   4 18377.9 518.094   2
   3  -2   4 17709.2 581.813   1
   3  -2   4 17481.5 507.412   5
  -1   3   4 18782.1 579.190   5
   2   1   4 17716.5 460.410  10
  -2  -1   4 19036.7 367.982   5
  -1   3   4 19209.3 555.225   8
   1  -3   4 17729.5 584.662   1
  -2  -1   4 18743.6 583.536   1
  -3   2   4 18333.7 567.877   4
   2   1   4 18551.3 461.230   1
  -1   3   4 17675.8 470.301  10
  -2  -1   4 19429.8 616.823   6
   2   1   4 17619.3 282.347   7
  -3   2   5 12245.3 446.551   2
   3  -2   5 10945.1 488.863   1
   1  -3   5 11707.2 513.774   1
   1  -3   5 12815.8 365.798  10
  -2  -1   5 11722.5 273.350   5
   2   1   5 11160.2 390.301   1
   2   1   5 11286.2 476.858   5
   2   1   5 11677.6 511.587   4
  -2  -1   5 12506.1 531.694   6
   3  -2   5 11141.7 418.274   5
  -1   3   5 11902.2 470.535   8
  -2  -1   5 11651.9 503.429   1
   2   1   5 11355.6 351.857  10
  -1   3   5 10967.1 495.458   4
   1  -3   5 12289.6 475.096   6
  -2  -1   5 11812.4 395.696   4
  -3   2   5 11673.6 485.628   4
   1  -3   6 1121.35 194.219   1
  -1   3   6 929.648 184.380   4
   3  -2   6 1009.95 179.767   1
   2   1   6 1074.86 104.693  10
   2   1   6 1149.21 193.204   4
   1  -3   6 1122.92 152.120   4
   1  -3   6 915.858 162.814   6
  -2  -1   6 1012.06 142.038   4
   3  -2   6 1128.02 110.195  10
  -2  -1   6 623.718 152.261   1
   3  -2   6 830.944 133.924   5
  -1   3   6 981.104 177.183   8
  -2  -1   6 1184.68 208.819   6
  -3   2   6 1069.85 176.535   4
  -2  -1   6 1033.47 74.7153   5
   1  -3   6 970.777 98.5618  10
  -2  -1   6 938.942 72.7321   5
   2   1   6 833.623 132.386   1
   3  -2   7 2880.68 123.930  10
  -2  -1   7 2469.42 280.152   1
   3  -2   7 2456.64 272.429   1
  -3   2   7 2467.26 277.752   4
   1  -3   7 2827.74 250.390   4
   2   1   7 2711.74 234.546   1
  -1   3   7 2396.93 282.792   4
   2   1   7 3055.81 313.796   4
  -2  -1   7 2160.70 91.4489   5
   3  -2   7 2231.59 209.381   5
  -2  -1   7 2549.16 297.873   6
   1  -3   7 2831.33 300.025   1
   1  -3   7 2752.94 278.488   6
  -2  -1   7 2780.16 243.571   4
  -2  -1   8 2530.95 253.553   4
   3  -2   8 1963.08 276.433   4
   2   1   8 2313.51 302.389   4
  -2  -1   8 2721.27 334.029   6
  -3   2   8 3016.27 320.150   4
   2   1   8 2502.76 246.016   1
   3  -2   8 2410.92 290.419   1
   1  -3   8 2268.26 299.748   1
   1  -3   8 2305.98 244.637   4
  -1   3   8 2726.25 320.926   4
  -2  -1   8 2375.95 300.335   1
   1  -3   8 2448.11 293.694   6
   2   1   9 3350.19 380.182   4
  -3   2   9 3159.35 359.723   4
   1  -3   9 3191.44 343.107   6
   3  -2   9 2333.82 308.194   1
   1  -3   9 2563.19 342.654   1
   3  -2   9 2996.42 361.655   4
  -2  -1   9 2677.74 336.283   1
   2   1   9 3021.04 287.242   1
  -2  -1   9 2670.03 283.973   4
  -2  -1   9 3258.30 385.806   6
  -1   3   9 3375.42 374.294   4
   1  -3   9 3222.08 311.000   4
   3  -2  10 565.396 196.523   1
   1  -3  10 1150.50 265.278   6
  -3   1 -10 88.5099 146.274   3
   1   2 -10 822.264 240.353   2
  -2   3 -10 580.370 193.038   2
  -1  -2  -9 2968.13 364.511   3
   2  -3  -9 3154.98 400.498   3
   3  -1  -9 3395.70 336.070   2
  -3   1  -9 3221.29 338.775   3
   1   2  -9 2602.70 341.791   2
   2  -3  -8 2190.52 310.519   3
   1   2  -8 2216.20 220.568   7
  -1  -2  -8 2546.79 314.921   3
  -3   1  -8 2655.18 285.993   3
  -3   1  -8 2285.07 238.771   5
   3  -1  -8 2526.47 274.118   2
   1   2  -8 2069.84 274.590   2
  -1  -2  -7 3145.27 327.518   3
  -3   1  -7 2822.14 271.012   3
   1   2  -7 2678.82 291.046   2
  -3   1  -7 2867.90 255.302   5
   3  -1  -7 2708.06 260.663   2
  -2   3  -7 2431.42 187.912   7
  -1  -2  -7 2018.11 202.583   1
   3  -1  -7 2764.75 141.932  10
   2  -3  -7 2830.48 198.133   2
   2  -3  -7 2742.52 142.423  10
   2  -3  -7 2111.86 280.756   3
  -1  -2  -7 2142.21 139.458   2
   2  -3  -6 1104.72 126.458   2
  -3   1  -6 947.523 162.854   3
  -1  -2  -6 782.312 80.0505   2
   2  -3  -6 620.448 181.483   3
   1   2  -6 1020.71 185.060   2
  -3   1  -6 1167.60 177.673   2
   2  -3  -6 1266.17 147.254   7
  -1  -2  -6 815.893 129.272   1
  -2   3  -6 945.583 130.732   7
   2  -3  -6 1195.05 114.910  10
  -3   1  -6 913.464 152.872   5
   3  -1  -6 1034.70 87.7818   8
  -2   3  -6 1200.06 98.1265   5
   2  -3  -6 831.636 138.793   1
   2  -3  -6 1036.84 145.447   8
  -1  -2  -6 783.384 196.510   3
   1   2  -6 1000.81 102.320  10
  -1  -2  -6 955.895 90.1134   2
   3  -1  -6 1137.01 172.744   2
   2  -3  -5 11193.6 399.379   7
  -3   1  -5 11675.6 430.120   3
  -2   3  -5 11526.7 390.600   7
   1   2  -5 11566.1 502.492   2
   3  -1  -5 11685.4 460.107   4
  -2   3  -5 11513.1 305.203   5
   2  -3  -5 10933.6 531.358   3
  -1  -2  -5 12344.3 503.529   5
  -1  -2  -5 11855.5 524.445   3
  -3   1  -5 11477.6 455.241   2
   3  -1  -5 12446.3 486.060   2
  -3   1  -5 12648.1 470.273   5
   2  -3  -5 11591.2 359.341  10
  -3   1  -5 11047.7 477.729   1
  -1  -2  -5 11766.4 265.703   2
   2  -3  -5 11371.1 404.302   1
  -1  -2  -5 11269.8 255.557   2
  -1  -2  -5 11240.0 362.835   1
   1   2  -5 11902.3 357.504  10
   2  -3  -5 11826.9 346.449   2
   2  -3  -4 18880.0 419.705   2
   1   2  -4 17691.8 587.205   2
   2  -3  -4 18425.7 474.359   1
   3  -1  -4 18779.7 565.704   2
  -3   1  -4 18634.0 491.131   3
  -1  -2  -4 17755.3 590.485   3
   2  -3  -4 19075.9 475.290  10
   2  -3  -4 18076.9 614.208   3
   2  -3  -4 17632.3 495.721   7
   3  -1  -4 18544.0 575.040   1
   1   2  -4 17930.7 459.318  10
  -2   3  -4 19045.2 502.737   7
  -1  -2  -4 18427.8 583.842   8
  -1  -2  -4 17188.8 399.083   1
   1   2  -4 17628.8 577.811   1
  -2   3  -4 18121.3 394.787   5
  -2   3  -4 18458.3 609.765   1
   3  -1  -4 18717.2 542.956   4
  -3   1  -4 18107.7 608.690   8
  -3   1  -4 19009.3 549.704   2
  -3   1  -4 17706.4 565.605   1
  -1  -2  -4 19372.8 595.395   5
  -3   1  -4 18235.7 548.123   5
   2  -3  -4 19023.4 598.436   4
   2  -3  -3 39804.9 845.901   4
  -1  -2  -3 40220.3 864.745   3
  -1  -2  -3 40214.5 853.639   5
   2  -3  -3 38563.2 774.600   7
  -3   1  -3 40960.2 832.322   5
  -2   3  -3 38839.3 657.153   5
   2  -3  -3 39933.7 698.438   1
   1   2  -3 39939.0 743.774  10
   2  -3  -3 40631.4 755.945  10
   2  -3  -3 40801.3 872.106   3
   1   2  -3 40575.5 840.663   1
  -3   1  -3 40624.7 813.592   2
  -1  -2  -3 41376.2 856.996   8
   3  -1  -3 41344.4 845.884   1
   1   2  -3 41117.2 861.881   2
   2  -3  -3 40523.6 653.108   2
  -2   3  -3 39414.2 768.309   7
  -2   3  -3 39854.2 873.360   1
   3  -1  -3 41505.8 795.678   4
  -1  -2  -3 40346.9 563.762   9
  -3   1  -3 41168.6 702.923   3
   3  -1  -3 40589.7 830.618   2
   2  -3  -2 38152.5 729.011  10
  -2   3  -2 39020.9 794.066   1
  -3   1  -2 37503.4 765.482   5
  -1  -2  -2 37200.5 760.367   8
  -2   3  -2 37613.3 735.541   7
  -3   1  -2 36743.0 604.956   3
   1   2  -2 37737.9 713.693  10
   3  -1  -2 37310.3 716.753   4
   1   2  -2 39081.3 776.834   6
  -1  -2  -2 37679.8 506.825   2
   2  -3  -2 37635.2 754.774   4
   1   2  -2 38043.0 732.729   1
  -2   3  -2 36714.3 643.135   5
  -1  -2  -2 38036.9 777.222   5
   2  -3  -2 36898.5 736.170   7
   1   2  -2 36626.0 755.964   2
   3  -1  -2 38656.8 770.918   2
  -3   1  -2 37923.4 748.749   2
   2  -3  -2 39313.5 773.199   3
   2  -3  -2 38278.0 627.347   2
  -3   1  -2 37536.4 746.578   9
   1   2  -2 37803.9 565.368   5
  -1  -2  -2 37958.9 779.247   3
  -1  -2  -1 26136.1 575.962   5
   1   2  -1 25736.4 564.262  10
   3  -1  -1 25798.3 582.767   2
  -1  -2  -1 25253.1 437.169   2
   3  -1  -1 24027.4 534.369   4
   1   2  -1 25857.7 579.134   6
  -3   1  -1 24194.8 579.732   5
   1   2  -1 25823.8 552.515   2
   2  -3  -1 26438.2 582.569  10
  -1  -2  -1 24900.6 562.453   8
   2  -3  -1 26036.3 534.441   3
  -3   1  -1 26047.2 580.405   2
  -2   3  -1 26654.2 528.545   4
  -1  -2  -1 25545.8 567.048  10
  -2   3  -1 25459.7 581.644   7
   3  -1  -1 24954.0 564.163   5
   2  -3  -1 26385.9 505.221   9
  -2   3  -1 25531.8 576.503   1
  -2   3  -1 26199.1 423.667   3
   2  -3  -1 25740.6 578.493   7
  -1  -2  -1 25895.2 588.609   3
   1   2  -1 25775.2 486.133   5
  -3   1  -1 24669.7 561.657   9
   2  -3  -1 26502.9 564.765   4
   1   2  -1 26043.6 514.556   1
  -2   3  -1 26428.8 422.114   6
   1   2   0 1164.91 121.211   8
  -3   1   0 1152.45 127.046   2
   1   2   0 928.447 79.3897   1
   1   2   0 1052.08 75.2405   4
   2  -3   0 840.184 110.349   7
   2  -3   0 892.292 100.320   4
   1   2   0 743.998 87.8883   2
  -3   1   0 1200.95 96.1846   6
  -2   3   0 934.997 108.768   2
  -3   1   0 1150.14 133.116   5
  -2   3   0 954.857 133.141   7
  -1  -2   0 1199.55 129.861   6
   2  -3   0 838.995 114.908  10
   3  -1   0 1064.73 92.5474   6
  -2   3   0 1017.48 83.3926   6
  -1  -2   0 970.909 109.846   5
   1   2   0 954.184 111.453  10
   1   2   0 937.241 117.969   3
   3  -1   0 1156.68 128.657   2
   2  -3   0 919.498 107.782   1
   3  -1   0 1227.33 118.710   4
   3  -1   0 1222.93 122.244   9
  -1  -2   0 939.076 118.867  10
   1   2   0 868.987 100.615   5
  -2   3   0 964.602 105.407   9
   1   2   0 994.777 111.380   6
   3  -1   0 1134.88 132.182   5
   2  -3   0 995.258 87.9393   3
  -2   3   0 955.279 91.2058   3
  -2   3   0 973.349 105.311   4
   1   2   1 28614.0 471.695   2
  -2   3   1 28821.8 596.544   4
  -1  -2   1 29849.6 616.221  10
   3  -1   1 27522.7 594.888   9
  -3   1   1 27240.1 575.591   4
   1   2   1 28211.6 619.685   6
  -1  -2   1 29185.9 619.831   6
  -3   1   1 27566.8 605.321   2
   3  -1   1 27591.6 472.493   6
  -1  -2   1 28233.5 543.088   1
   1   2   1 28651.7 624.901   3
   1   2   1 28634.2 537.166   4
  -1  -2   1 29164.9 517.778   5
  -3   1   1 28498.2 555.192   6
   2  -3   1 28532.5 606.968   1
   1   2   1 28624.9 611.729   5
  -3   1   1 27290.5 598.702   5
   3  -1   1 27177.2 475.339   3
   3  -1   1 27181.3 616.050   5
   2  -3   1 29314.7 557.028   4
   3  -1   1 27819.6 606.298   2
  -2   3   1 28737.6 536.761   2
   1   2   1 28492.4 390.687   1
   1   2   1 28902.5 605.553  10
   2  -3   1 29017.8 457.371   6
   2  -3   1 29970.2 622.031   7
   1   2   1 29244.9 613.711   8
   2  -3   1 28752.4 611.276  10
   2  -3   2 35606.5 747.763   1
   2  -3   2 35737.6 560.310   6
   1   2   2 35549.0 743.579   8
   3  -1   2 34566.7 731.524   5
   1   2   2 35354.0 621.505   7
  -1  -2   2 35433.3 528.212   5
  -3   1   2 35471.7 711.602   6
  -1  -2   2 35634.1 703.653   1
   1   2   2 34775.8 684.282  10
  -3   1   2 36043.3 697.900   5
   3  -1   2 35365.7 588.361   6
   1   2   2 35862.6 700.223   4
  -2   3   2 34308.3 720.594   4
   3  -1   2 35294.1 585.112   3
   1   2   2 35850.3 744.403   5
   1   2   2 33521.3 739.135   3
  -3   1   2 34808.4 685.682   4
  -1  -2   2 36118.3 746.235   6
  -2   3   2 35856.2 590.276   2
   1   2   2 33072.6 431.173   1
   3  -1   2 36998.5 733.619   1
   3  -1   2 35675.0 721.253   2
   2  -3   2 35361.1 655.760   4
   1   2   2 35598.5 485.272   2
   2  -3   2 35657.0 693.257  10
   2  -3   2 35336.4 699.627   7
  -3   1   2 35147.4 721.759   2
   1   2   3 39740.1 636.667   7
   1   2   3 40742.7 855.471   8
   2  -3   3 39782.6 680.341   6
   2  -3   3 39928.3 856.582   1
   1   2   3 40077.8 848.603   5
   2  -3   3 39045.8 758.457   7
   1   2   3 39995.1 830.415   4
  -3   1   3 40265.1 822.049   2
  -1  -2   3 40354.7 848.546   6
   3  -1   3 40179.0 820.034   1
   1   2   3 41074.9 876.648   3
  -1  -2   3 36646.5 485.066   5
   3  -1   3 39663.4 823.837   5
  -2   3   3 38712.3 735.780   8
  -3   1   3 41412.1 772.718   5
  -2   3   3 39408.8 631.929   2
   1   2   3 39865.7 741.072  10
   1   2   3 40582.0 550.606   1
  -2   3   3 38700.9 836.222   4
  -1  -2   3 40735.3 830.970   1
  -3   1   3 41220.3 792.332   4
   2  -3   3 39238.3 737.229  10
  -1  -2   3 40279.0 555.860   4
  -2   3   4 19823.5 520.871   8
  -3   1   4 18405.8 506.104   5
   1   2   4 19623.3 372.564   7
   1   2   4 18700.5 597.333   4
  -2   3   4 19062.7 609.534   4
  -1  -2   4 19111.4 595.430   1
   1   2   4 18719.0 600.654   8
  -3   1   4 18332.9 564.695   2
   1   2   4 19856.8 485.974  10
   3  -1   4 19428.3 359.597   7
  -1  -2   4 20061.4 419.767   4
   2  -3   4 19664.8 482.467  10
   3  -1   4 20399.0 584.903   5
   2  -3   4 19852.6 623.411   1
  -3   1   4 20059.4 565.822   4
   1   2   4 19139.1 594.155   5
   1   2   4 19537.3 403.141   1
  -1  -2   4 19871.4 617.594   6
   2  -3   4 18935.0 498.288   6
  -2   3   4 19271.6 419.585   2
   3  -1   4 19367.8 578.550   1
   1   2   5 11522.1 508.927   8
   2  -3   5 11001.5 340.944  10
   3  -1   5 11189.7 450.983   5
   3  -1   5 10941.5 465.959   1
  -1  -2   5 11641.5 503.670   6
  -2   3   5 11364.5 467.177   5
  -2   3   5 10359.7 401.601   8
  -3   1   5 12037.6 412.109   5
   2  -3   5 11319.8 508.934   1
   1   2   5 11581.3 508.809   4
  -1  -2   5 11397.8 360.052   4
  -3   1   5 11346.7 464.462   2
   1   2   5 11251.6 351.347  10
  -3   1   5 11677.5 462.162   4
  -2   3   5 11191.3 502.148   4
   1   2   5 11445.4 346.057   1
  -1  -2   5 10964.3 491.100   1
   2  -3   5 11390.0 423.866   6
  -1  -2   6 1483.40 228.929   6
  -2   3   6 986.299 155.540   8
  -1  -2   6 1365.39 207.948   1
  -3   1   6 1526.22 198.263   4
   2  -3   6 1345.25 185.780   6
   2  -3   6 1068.62 196.080   1
   2  -3   6 1303.81 112.429  10
   1   2   6 1357.77 206.725   4
  -2   3   6 1304.49 200.152   4
   1   2   6 1449.84 120.950  10
   2  -3   6 1354.65 103.463   5
  -1  -2   6 1575.62 158.670   4
   3  -1   6 884.571 150.103   5
   1   2   6 1150.46 135.263   1
   3  -1   6 1066.03 180.441   1
   1   2   7 2375.55 282.389   4
   2  -3   7 2543.42 254.682   4
   3  -1   7 2837.29 281.866   1
   2  -3   7 2820.36 267.352   6
  -1  -2   7 2622.43 290.895   6
   2  -3   7 2729.39 300.036   1
  -3   1   7 2583.24 203.755   5
  -1  -2   7 3004.33 238.383   4
  -1  -2   7 2064.97 266.277   1
  -3   1   7 2866.76 221.821   5
  -3   1   7 2773.82 273.587   4
  -2   3   7 2790.39 294.444   4
   3  -1   7 2482.05 119.493  10
   2  -3   7 2536.00 116.931  10
   1   2   7 2161.16 196.689   1
  -3   1   8 1575.48 235.951   4
  -2   3   8 2582.94 305.753   4
  -1  -2   8 2048.24 276.473   6
   2  -3   8 2285.17 264.459   6
   3  -1   8 2409.95 300.820   4
   1   2   8 2245.54 218.876   1
  -1  -2   8 2182.66 229.450   4
  -3   1   8 2209.65 206.449   5
  -1  -2   8 2213.68 291.920   1
   1   2   8 2396.87 313.994   4
   3  -1   8 1643.54 228.591   1
   2  -3   8 1766.93 272.663   1
   2  -3   8 1906.52 243.917   4
  -2   3   9 3208.00 377.042   4
  -1  -2   9 2879.71 353.364   1
   3  -1   9 2554.70 328.035   4
   2  -3   9 2698.36 339.485   1
   1   2   9 3041.79 366.583   4
   2  -3   9 3620.67 365.400   6
   2  -3   9 3227.87 338.232   4
  -1  -2   9 3146.78 294.108   4
  -3   1   9 3690.37 374.911   4
   3  -1   9 3179.66 343.528   1
  -1  -2   9 3564.17 383.747   6
   2  -3  10 658.815 199.424   4
   3  -1  10 118.624 132.891   1
   2  -3  10 806.509 219.460   6
  -3   1  10 545.040 191.193   4
  -3   0 -10 2270.03 330.126   3
   3   0 -10 1998.88 295.735   2
  -3   3  -9 27.9645 150.974   3
   3   0  -9 180.875 197.357   2
  -3   0  -9 217.029 184.418   3
   3  -3  -9-134.224 224.291   3
   0   3  -9-121.443 139.947   2
   0  -3  -9 216.028 165.809   3
   3   0  -8 5795.64 436.703   2
  -3   0  -8 5192.18 406.401   3
  -3   0  -8 5158.59 385.459   5
   0   3  -8 4965.20 420.023   2
  -3   3  -8 5206.91 373.359   3
   0  -3  -8 4761.79 437.832   3
   3  -3  -8 6280.43 359.667   2
   0   3  -8 5428.12 338.339   7
  -3   3  -7 40.5090 69.3443   5
   0   3  -7-69.4871 87.0606   7
   3  -3  -7 47.1887 49.7866  10
   3  -3  -7-33.8401 74.0987   2
   3   0  -7-111.082 119.015   2
   0  -3  -7 113.305 118.650   3
   0   3  -7-95.6264 124.501   2
  -3   0  -7-85.1814 92.1586   2
  -3   0  -7-35.5789 97.7552   5
  -3   0  -7-51.7067 117.387   3
   3  -3  -6 7676.23 301.757  10
   0   3  -6 7375.70 445.807   2
   3   0  -6 7744.84 437.353   2
   0  -3  -6 7991.62 483.685   3
   0  -3  -6 6752.90 298.617   1
   3   0  -6 7401.18 208.362   8
   3   0  -6 7839.79 300.629  10
  -3   3  -6 7824.60 323.125   5
   0   3  -6 7808.85 381.100   7
  -3   0  -6 7026.59 404.284   5
  -3   0  -6 7209.02 353.129   2
   0   3  -6 7338.17 291.375  10
   3   0  -6 6858.44 364.493   4
  -3   0  -6 7868.85 414.544   3
   3  -3  -6 7437.14 348.030   2
   3   0  -5 401.018 136.869   2
   0  -3  -5 322.698 147.084   3
   0  -3  -5 403.569 94.0290  10
   3  -3  -5 398.449 95.1147  10
   0   3  -5 446.948 92.3584  10
  -3   0  -5 326.213 114.468   3
   0   3  -5 336.603 108.719   7
   3   0  -5 320.534 36.7525   8
  -3   0  -5 284.251 115.049   5
   0  -3  -5 345.344 76.1375   1
  -3   3  -5 376.690 87.1694   5
   3  -3  -5 515.154 117.375   1
   3   0  -5 292.370 96.4350   4
   3  -3  -5 399.163 99.1065   2
  -3   0  -5 434.524 114.186   1
  -3   0  -5 402.427 111.395   2
  -3   0  -4 13615.3 455.788   9
   0  -3  -4 14856.7 437.006  10
   0   3  -4 14839.7 438.560  10
   3  -3  -4 13928.7 457.333   1
   3  -3  -4 13672.8 431.943  10
  -3   0  -4 14479.7 477.051   3
   3   0  -4 14168.0 517.838   2
   0  -3  -4 13555.7 297.832   1
  -3   3  -4 13512.2 417.854   5
   0  -3  -4 14096.4 514.516   8
   3  -3  -4 14343.3 434.502   2
   3   0  -4 13806.9 432.164   4
   0   3  -4 14207.3 529.514   1
  -3   0  -4 13767.2 440.984   2
   0  -3  -4 14542.1 556.667   3
  -3   0  -4 14429.6 521.325   5
   0   3  -4 14784.6 490.735   7
   3  -3  -4 14512.1 527.884   4
   0  -3  -3 1952.20 182.726   8
   0   3  -3 1676.05 168.665   7
  -3   0  -3 1730.40 151.357   3
   0  -3  -3 1625.92 151.019  10
  -3   0  -3 1614.07 143.074   2
   3  -3  -3 2032.18 189.063   4
   0   3  -3 1812.48 183.527   1
  -3   3  -3 1612.29 189.189   1
   3  -3  -3 1621.18 146.587   2
  -3   0  -3 1425.86 167.402   8
   0   3  -3 1307.29 60.2375   5
  -3   3  -3 1797.54 150.289   5
   3   0  -3 1913.00 145.650   4
   0  -3  -3 1713.31 193.376   3
  -3   0  -3 1569.83 150.763   9
  -3   0  -3 1489.01 167.111   5
   0   3  -3 1395.07 139.480  10
   3   0  -3 1712.50 180.052   2
   3   0  -3 1627.91 169.346   1
   0  -3  -3 1532.00 123.966   7
  -3   0  -2 39210.2 815.250   8
   0   3  -2 39104.7 781.986   6
   3   0  -2 37603.6 803.313   2
  -3   0  -2 38991.3 729.127   3
   0  -3  -2 39252.3 830.625   3
   0   3  -2 38674.6 799.982   7
   0   3  -2 39865.1 773.899  10
   3   0  -2 38786.9 694.056   4
  -3   0  -2 39122.0 826.689   5
  -3   3  -2 40061.7 758.317   5
  -3   0  -2 38661.5 742.536   2
   3   0  -2 39692.4 737.010   5
   0   3  -2 38508.3 770.999   1
   0   3  -2 39833.6 596.878   5
   3   0  -2 39531.2 803.686   1
   3  -3  -2 38549.5 815.661   4
   0  -3  -2 39182.1 767.994  10
   3  -3  -2 38795.8 741.989   2
  -3   3  -2 39141.8 849.937   1
  -3   3  -2 39834.6 844.521   2
  -3   0  -2 39333.6 738.849   9
   0   3  -1 1164.79 113.366   1
   0   3  -1 1264.35 131.237  10
   0   3  -1 1246.77 141.933   7
  -3   3  -1 1027.49 131.195   5
   0   3  -1 1368.34 133.056   3
  -3   0  -1 1295.22 129.740   8
   0  -3  -1 1206.50 110.054   4
  -3   0  -1 1175.81 124.003   2
   3   0  -1 1195.02 127.631   6
  -3   3  -1 1066.68 135.389   2
   3   0  -1 1146.52 137.274   2
  -3   0  -1 1241.28 119.001   6
   0  -3  -1 1126.36 52.5945   1
   0   3  -1 1283.77 59.7876   4
   3  -3  -1 1101.82 116.833   9
   0   3  -1 1223.16 128.454   6
   0   3  -1 1248.64 106.545   5
  -3   0  -1 1054.09 141.327   5
   3  -3  -1 1099.38 125.974   2
   0  -3  -1 1397.70 152.337   3
   3   0  -1 1269.44 132.184   5
   3   0  -1 1165.93 109.602   4
   3  -3  -1 1215.37 135.266   4
  -3   3  -1 939.539 129.535   9
   0  -3  -1 1317.98 135.362  10
   0  -3   0 57613.1 971.063   3
  -3   0   0 56356.0 959.746   2
  -3   0   0 57802.0 877.048   8
  -3   3   0 59409.9 984.505   9
   3  -3   0 56654.3 1002.55   7
   0   3   0 59018.1 975.364   6
   0   3   0 57237.3 927.915   5
   0   3   0 60181.5 792.983   4
   3   0   0 58735.1 930.703   3
   3   0   0 58367.6 927.138   4
   3   0   0 57569.2 990.372   5
   0   3   0 56980.2 801.075   1
  -3   0   0 55179.7 913.960   6
   0  -3   0 57244.1 788.702   1
   3   0   0 58569.1 932.109   6
   0   3   0 58333.9 979.081   3
   0  -3   0 57596.3 786.343   4
   3  -3   0 58084.5 768.755   3
  -3   0   0 58673.0 991.754   5
  -3   3   0 57975.0 989.562   5
   0  -3   0 58982.9 985.759   6
  -3   3   0 58065.1 989.026   2
   3  -3   0 58837.2 992.283   2
   3  -3   0 58708.9 982.670   4
   0   3   0 58352.3 995.858  10
   0  -3   0 59934.4 1000.33  10
   0   3   0 58966.3 986.335   7
   3  -3   0 57590.3 970.638   9
   3   0   0 58548.1 975.121   2
  -3   3   0 58684.3 981.431   4
  -3   0   1 1351.89 134.699   6
   0  -3   1 1222.77 135.229  10
  -3   0   1 1321.99 87.9044   8
  -3   3   1 850.837 120.768   4
   0   3   1 1244.54 140.328   3
   0  -3   1 1513.82 141.831   6
   0   3   1 1396.62 143.119   6
   3   0   1 1121.15 115.255   3
  -3   0   1 1241.14 114.426   4
   0  -3   1 1042.03 104.823   1
   0   3   1 1217.20 84.3534   2
   3   0   1 1152.96 125.861   2
   3   0   1 1276.70 116.372   6
   3  -3   1 1013.88 127.699   7
   0   3   1 1583.48 146.926   5
   3  -3   1 1236.41 145.745   1
   0   3   1 1256.55 132.957   7
  -3   0   1 1327.76 137.240   5
   0   3   1 1281.41 142.157   8
  -3   3   1 1132.49 123.813   2
   3  -3   1 1134.11 127.196   4
   0   3   1 1219.73 59.4802   1
   3   0   1 1152.85 131.171   5
  -3   0   1 1225.47 132.316   2
   3   0   1 1207.90 116.517   9
   0   3   1 1196.38 134.029  10
   0   3   1 1291.07 112.243   4
   0  -3   2 39133.1 771.998  10
  -3   0   2 39539.8 813.393   2
  -3   0   2 38584.1 694.253   4
   0  -3   2 38803.1 763.580   1
  -3   0   2 39121.1 739.791   5
   0   3   2 39692.4 739.111   7
  -3   0   2 41141.9 816.834   6
   3   0   2 39437.3 737.414   6
   0   3   2 39366.2 761.494   4
   3  -3   2 40424.9 774.722   7
   3   0   2 39373.6 734.130   3
   0  -3   2 39791.7 788.980   6
   0   3   2 39462.4 843.557   3
   0   3   2 40668.1 826.468   5
   3  -3   2 39532.3 840.261   1
  -3   3   2 38961.0 814.908   4
   0   3   2 38704.5 806.430   8
   3   0   2 38823.7 832.880   5
   3  -3   2 39949.0 797.695   4
   3   0   2 39368.4 745.794   1
   0   3   2 39150.5 775.871  10
   3   0   2 38876.6 743.869   2
  -3   3   2 37994.4 724.949   2
  -3   0   3 1581.71 166.414   2
   0  -3   3 1513.76 144.557  10
   3  -3   3 1731.17 184.551   1
   0   3   3 1538.52 137.147   7
   3  -3   3 2022.24 110.416   6
  -3   0   3 1692.06 140.810   4
  -3   3   3 1718.93 127.126   8
   0  -3   3 1621.26 166.891   1
   3  -3   3 1990.41 157.915   7
   0   3   3 1747.35 175.872   4
   3   0   3 1740.67 161.721   3
   0   3   3 1681.64 174.501   5
   3   0   3 1822.62 158.012   1
   3   0   3 1683.61 173.472   5
  -3   0   3 1779.39 143.533   5
   0  -3   3 1745.61 174.063   6
  -3   3   3 1894.42 146.844   2
   0   3   3 1790.54 153.327  10
  -3   0   3 1508.22 177.267   6
   0   3   3 1368.35 187.392   3
   0   3   3 1406.06 163.148   8
   0  -3   3 1584.26 83.4973   4
   3  -3   3 1784.54 152.509   5
  -3   3   3 1610.91 173.818   4
  -3   0   4 14518.7 525.442   2
   3  -3   4 13654.5 412.770   7
  -3   3   4 14121.5 424.970   2
  -3   3   4 14827.8 397.673   8
   0  -3   4 14417.0 529.683   1
   0  -3   4 14683.7 344.634   4
  -3   3   4 14251.0 530.700   4
   3   0   4 14244.0 463.239   1
  -3   0   4 13618.6 528.604   6
   0   3   4 14450.4 528.884   5
  -3   0   4 15194.5 453.350   4
   0   3   4 14838.8 532.830   4
   0   3   4 15519.0 538.796   8
   3  -3   4 13397.4 424.406  10
  -3   0   4 14694.8 411.397   5
   3  -3   4 13542.3 419.181   5
   3   0   4 13704.9 508.220   5
   0  -3   4 14630.4 514.166   6
   0   3   4 14735.8 440.778  10
   3  -3   4 14322.4 545.483   1
   0  -3   4 14123.4 427.656  10
   0   3   5 406.887 145.033   8
   0  -3   5 524.698 144.963   1
   3  -3   5 441.871 138.114   1
  -3   3   5 270.746 116.789   4
  -3   0   5 732.948 167.718   6
   3  -3   5 344.714 93.6153   5
   0  -3   5 496.496 147.174   6
   0   3   5 382.711 90.7555  10
  -3   3   5 306.768 96.2573   8
   3  -3   5 322.442 88.2466  10
  -3   3   5 437.432 101.073   2
   0  -3   5 428.277 84.1601   4
  -3   0   5 486.569 95.3914   5
   3   0   5 384.167 110.907   1
   0   3   5 440.977 146.088   4
  -3   0   5 540.708 118.475   4
   3   0   5 574.040 98.1449  10
   0   3   6 6876.76 431.859   4
   3  -3   6 7296.40 318.151   5
   3   0   6 7521.81 386.147   1
   3   0   6 7231.67 287.968  10
  -3   0   6 7441.61 460.193   6
   0  -3   6 7622.45 451.929   1
  -3   0   6 7933.20 308.710   5
   3  -3   6 7576.46 290.089  10
  -3   0   6 7883.55 383.988   4
   3  -3   6 7045.10 443.814   1
  -3   3   6 7093.45 437.640   4
   0  -3   6 7502.65 323.897   4
   0   3   6 8071.17 448.825   8
   0   3   6 7918.28 305.962  10
   0  -3   6 8721.50 460.027   6
   3  -3   7 17.7830 35.8554  10
   0  -3   7 30.4811 72.2513   4
   3   0   7 219.686 152.954   4
  -3   0   7 94.8936 103.389   4
   0   3   7 191.342 142.601   4
   0  -3   7-71.2077 129.368   6
  -3   0   7-113.943 160.112   6
  -3   3   7-50.5695 115.061   4
   3   0   7 84.1322 94.7618   1
   0  -3   7-10.9885 130.036   1
   3  -3   7 96.3615 126.452   1
  -3   0   7 24.3744 54.4717   5
   3   0   8 5441.05 459.225   4
  -3   0   8 5705.41 390.327   4
  -3   0   8 5724.88 474.885   6
   0   3   8 5651.00 455.817   4
   0  -3   8 5330.43 343.267   4
   0  -3   8 5319.78 428.142   6
  -3   3   8 5897.05 454.893   4
   3  -3   8 6249.07 468.451   1
   3   0   8 4941.83 366.226   1
   3  -3   8 5676.72 430.365   4
   0  -3   8 5155.89 440.033   1
   0   3   9-92.7529 127.651   4
  -3   0   9 275.548 166.043   6
   3   0   9 93.9663 113.144   1
   3  -3   9 290.476 164.861   1
   3   0   9-23.6196 166.468   4
   3  -3   9 163.302 213.340   4
  -3   3   9-1.65892 136.901   4
   0  -3   9 87.6327 151.325   1
   0  -3   9-121.588 151.786   6
  -3   0   9 112.814 117.018   4
   3  -3  10 1255.71 249.842   4
   3   1  -9 1955.33 293.191   2
  -3  -1  -9 1824.32 306.071   3
  -1   4  -9 1725.64 285.495   2
  -1   4  -8 1542.77 201.516   7
  -3  -1  -8 1320.19 231.316   3
   4  -3  -8 1521.17 210.213   2
   3   1  -8 1460.52 271.759   2
  -3  -1  -8 1266.23 216.727   5
   1  -4  -8 1635.74 297.556   3
  -4   3  -8 1168.77 181.889   3
  -1   4  -8 1558.41 271.614   2
   3   1  -7 5428.61 420.626   2
  -1   4  -7 6053.59 364.981   7
   4  -3  -7 6657.49 299.413  10
  -3  -1  -7 5635.67 412.479   3
   1  -4  -7 5666.10 463.552   3
   4  -3  -7 6348.16 387.920   2
  -4   3  -7 7490.14 375.838   3
  -3  -1  -7 6380.72 431.478   5
  -4   3  -7 6272.97 350.975   5
   3   1  -6 1391.87 103.749   8
   3   1  -6 1752.42 233.099   2
   1  -4  -6 1526.97 142.990   7
  -3  -1  -6 1638.82 218.204   3
   3   1  -6 1553.77 153.547  10
   1  -4  -6 1338.14 132.076   1
   4  -3  -6 1647.15 193.769   2
  -3  -1  -6 1756.46 161.431   2
   1  -4  -6 1534.57 241.344   3
  -1   4  -6 1804.51 206.550   7
   1  -4  -6 1631.21 159.836  10
  -4   3  -6 1497.81 161.187   3
  -3  -1  -6 1486.24 211.430   5
  -4   3  -6 1546.43 175.652   5
   4  -3  -6 1568.79 162.273  10
  -3  -1  -6 1366.79 169.597   9
  -3  -1  -5 8770.40 463.341   5
   1  -4  -5 9039.48 281.176   1
   1  -4  -5 8951.73 497.695   3
   1  -4  -5 10037.3 390.484  10
  -3  -1  -5 9035.95 449.836   3
  -4   3  -5 10247.7 333.162   3
  -4   3  -5 9164.88 403.186   5
   3   1  -5 9735.48 488.111   2
   4  -3  -5 9328.71 417.194   2
   3   1  -5 9255.88 357.596   4
   1  -4  -5 9547.64 355.172   7
  -1   4  -5 9294.79 379.966  10
  -1   4  -5 9531.06 434.642   7
   3   1  -5 8942.59 369.462  10
  -3  -1  -5 9194.10 373.255   9
  -3  -1  -5 9039.70 342.287   2
   3   1  -4 4805.31 325.339   2
   3   1  -4 5671.11 245.679   4
   1  -4  -4 5013.32 262.354   7
  -3  -1  -4 4950.58 240.277   2
  -3  -1  -4 4814.69 326.175   5
  -3  -1  -4 4835.28 313.941   3
   3   1  -4 4900.16 277.449  10
   4  -3  -4 5378.02 305.025   2
   1  -4  -4 5395.13 288.581  10
  -4   3  -4 4894.92 288.721   5
  -4   3  -4 5200.34 187.429   3
   1  -4  -4 5540.12 363.974   3
  -1   4  -4 5433.81 320.011   7
  -1   4  -4 5625.92 294.923  10
  -3  -1  -4 5390.90 261.872   9
   3   1  -4 5330.15 170.229   8
   4  -3  -4 4530.19 293.075   1
   1  -4  -4 5150.96 171.147   1
   1  -4  -3 11310.5 475.940   3
  -3  -1  -3 10969.2 467.676   5
   3   1  -3 12002.6 275.919   8
  -1   4  -3 12008.1 284.156   5
  -1   4  -3 11727.2 425.013  10
  -3  -1  -3 11783.8 444.899   3
   1  -4  -3 11225.5 395.723   7
  -3  -1  -3 11996.8 369.936   2
  -3  -1  -3 11211.1 466.142   8
   3   1  -3 12388.5 472.571   1
  -1   4  -3 12212.7 473.525   1
  -1   4  -3 11574.5 420.692   6
   1  -4  -3 11902.3 451.830   4
  -1   4  -3 11661.7 452.285   7
  -4   3  -3 11506.9 435.588   5
   3   1  -3 11805.5 332.423   4
   3   1  -3 12172.3 367.097   5
   4  -3  -3 11572.7 435.289   2
  -4   3  -3 12110.5 493.321   2
   1  -4  -3 11657.7 425.892  10
   1  -4  -3 11380.8 221.402   1
   4  -3  -3 13138.0 489.364   4
   3   1  -3 11714.2 473.282   2
  -1   4  -2 807.728 127.713  10
   3   1  -2 1064.62 94.0936   8
   4  -3  -2 1046.58 140.372   4
  -3  -1  -2 1171.44 156.259   5
   3   1  -2 1109.22 97.1466   4
  -1   4  -2 1169.51 157.721   7
   1  -4  -2 969.845 140.036  10
  -4   3  -2 992.300 152.721   2
  -1   4  -2 1044.88 103.179   5
  -1   4  -2 1079.17 128.580   6
   1  -4  -2 1339.60 146.059   4
  -4   3  -2 875.700 138.865   5
   4  -3  -2 997.922 145.107   2
   1  -4  -2 1080.46 134.368   7
   1  -4  -2 1255.53 69.0071   1
  -3  -1  -2 1098.08 118.199   2
   3   1  -2 979.560 143.655   2
  -1   4  -2 1098.13 129.389   3
  -3  -1  -2 1261.81 145.966   3
   1  -4  -2 1167.71 156.304   3
  -4   3  -2 872.593 146.616   9
   3   1  -2 1050.60 122.140   5
   3   1  -2 1217.04 142.929   1
  -3  -1  -2 1172.84 152.886   8
  -1   4  -2 1387.15 150.934   1
   3   1  -2 1144.10 157.216   6
  -4   3  -1 29461.0 728.994   9
  -4   3  -1 29052.5 726.738   2
  -3  -1  -1 29653.7 666.790   8
  -3  -1  -1 29097.1 626.620   2
   4  -3  -1 29406.1 701.287   9
  -3  -1  -1 29074.6 674.411   6
   3   1  -1 30501.2 698.890   2
   1  -4  -1 29473.0 481.260   1
   3   1  -1 28869.0 564.829   8
  -1   4  -1 28009.6 628.745   6
   4  -3  -1 28761.9 699.662   2
  -1   4  -1 28759.5 640.291   3
   1  -4  -1 29677.9 686.429   3
   4  -3  -1 30037.5 714.680   4
  -1   4  -1 28621.6 694.007  10
  -3  -1  -1 29850.1 717.736   5
  -1   4  -1 29607.8 635.203   1
  -1   4  -1 29741.8 718.386   7
  -1   4  -1 28987.4 509.151   4
   3   1  -1 28723.2 651.474   5
  -4   3  -1 28734.6 701.267   5
   1  -4  -1 29450.4 615.890   4
   1  -4  -1 27360.4 683.647  10
   3   1  -1 30311.2 662.313   1
   3   1  -1 28363.2 546.638   4
  -1   4  -1 28617.0 597.816   5
   3   1  -1 29047.7 697.861   6
   1  -4  -1 29210.5 685.098   7
  -1   4   0 16262.6 508.894   7
  -1   4   0 15928.3 459.295   6
  -3  -1   0 15561.7 423.790   8
   4  -3   0 16005.4 495.806   4
   1  -4   0 16584.2 386.399   1
  -1   4   0 16104.0 467.813   3
  -3  -1   0 16349.1 488.728   6
   3   1   0 15499.4 432.328   8
   1  -4   0 16374.0 466.401   3
   3   1   0 15142.7 471.967   3
  -1   4   0 16178.1 462.339   5
   3   1   0 16017.1 467.534   2
  -3  -1   0 15748.7 481.203   5
   3   1   0 16362.7 487.181   6
  -1   4   0 16902.1 396.704   4
  -4   3   0 15954.5 304.663   6
   3   1   0 15209.2 483.058   5
  -3  -1   0 15744.1 459.851   2
  -1   4   0 16664.9 400.386   1
  -1   4   0 15796.1 498.766  10
  -4   3   0 15196.1 493.305   2
   4  -3   0 14901.8 494.013   2
   1  -4   0 15912.5 384.456   4
   1  -4   0 16504.0 507.261  10
  -4   3   0 15526.3 491.126   4
   1  -4   0 16532.4 504.929   7
  -4   3   0 15419.5 501.410   5
   4  -3   0 15079.8 488.404   9
   3   1   1 28881.8 676.078   3
  -1   4   1 28518.0 698.366  10
  -1   4   1 28920.4 488.829   9
   3   1   1 29178.1 672.260   8
  -3  -1   1 28930.7 684.775   2
  -1   4   1 29034.5 695.996   7
   1  -4   1 29337.8 620.768   1
  -1   4   1 28115.9 675.659   6
   3   1   1 29245.7 676.764   6
   1  -4   1 29228.1 702.877  10
   3   1   1 29313.3 600.862   9
  -3  -1   1 29911.9 703.989   6
  -4   3   1 29949.8 711.032   4
  -1   4   1 29260.5 691.310   5
   1  -4   1 29349.6 649.081   6
  -3  -1   1 29733.1 654.946   5
   3   1   1 29322.7 716.388   5
   4  -3   1 29695.1 711.123   4
  -4   3   1 29331.4 721.930   5
   4  -3   1 28824.1 723.803   2
   4  -3   1 28940.4 728.377   1
  -1   4   1 29210.6 691.743   3
  -4   3   1 29733.7 701.018   2
  -1   4   1 29082.2 617.991   4
   3   1   1 31285.1 651.994   2
   1  -4   1 28971.5 504.839   4
   4  -3   2 983.811 133.539   7
  -1   4   2 955.227 130.112   4
  -1   4   2 836.830 128.864   7
  -4   3   2 822.355 138.990   4
  -4   3   2 924.109 142.187   5
   1  -4   2 1225.04 146.406   1
   3   1   2 961.416 115.476   2
  -1   4   2 1018.28 147.146   5
   1  -4   2 1045.76 128.864   6
   3   1   2 969.943 145.592   8
   3   1   2 910.552 123.505   6
  -4   3   2 813.833 126.243   2
   4  -3   2 978.816 153.986   1
   3   1   2 1159.97 142.649   3
  -3  -1   2 1041.69 141.639   2
  -1   4   2 947.673 152.968   3
  -3  -1   2 872.064 111.171   5
   3   1   2 745.709 128.348   5
  -1   4   2 1084.52 79.2922   2
  -1   4   2 1140.66 153.579   8
   4  -3   2 845.156 129.170   5
  -3  -1   2 1076.86 152.777   6
   4  -3   2 760.429 127.700   4
   1  -4   2 856.922 133.459  10
   1  -4   2 898.930 78.7100   4
  -1   4   2 928.797 134.837  10
   3   1   3 11298.2 447.167   3
  -1   4   3 12200.3 461.542   8
   1  -4   3 12603.2 308.049   4
  -4   3   3 13022.2 315.791   8
   1  -4   3 12634.6 473.791   1
  -1   4   3 11927.0 428.753   7
  -3  -1   3 12911.4 348.311   4
  -3  -1   3 12646.9 488.994   2
  -3  -1   3 12705.7 379.185   5
   3   1   3 12307.9 440.617  10
   1  -4   3 12691.9 436.334   6
  -4   3   3 12698.8 442.415   2
  -1   4   3 12260.9 460.096   4
   3   1   3 12907.3 469.400   6
  -4   3   3 13442.2 499.976   4
   4  -3   3 13549.2 521.366   1
  -1   4   3 12270.7 509.698   3
  -3  -1   3 12324.5 488.094   6
   3   1   3 12828.3 386.547   1
   3   1   3 12152.6 378.381   2
   1  -4   3 12838.4 446.546  10
   4  -3   3 13486.2 431.722   7
  -1   4   3 12546.4 450.936  10
   3   1   3 12724.4 501.761   5
  -1   4   3 13002.0 495.338   5
   4  -3   3 12377.6 454.191   5
   1  -4   4 5369.50 286.424  10
  -1   4   4 5005.32 319.585   8
  -4   3   4 5240.99 296.326   2
   1  -4   4 5324.49 339.953   1
   1  -4   4 5244.30 304.977   6
   4  -3   4 5267.06 263.382   7
   3   1   4 4930.84 254.151   1
  -3  -1   4 5577.05 357.598   6
   3   1   4 5604.32 336.856   3
   4  -3   4 5383.28 306.216   5
  -4   3   4 5135.57 194.882   8
  -4   3   4 5314.61 335.695   4
   1  -4   4 5657.47 229.073   4
  -3  -1   4 5189.44 239.536   4
  -3  -1   4 5564.81 238.720   5
   4  -3   4 5432.39 356.042   1
  -1   4   4 5281.55 292.831  10
   3   1   4 5462.88 290.567  10
  -1   4   4 5305.49 336.426   4
  -4   3   5 8353.48 387.819   2
  -4   3   5 8257.67 444.110   4
  -1   4   5 8645.19 459.996   4
   1  -4   5 8541.14 322.812   4
   4  -3   5 7816.21 312.220   7
   4  -3   5 7741.12 449.358   1
   1  -4   5 8211.96 352.931  10
  -3  -1   5 8494.60 473.262   6
   1  -4   5 8924.29 425.620   6
  -3  -1   5 8602.59 339.018   4
  -3  -1   5 8459.93 279.096   5
   4  -3   5 8070.89 388.187   5
  -1   4   5 8322.16 437.416   8
   3   1   5 8298.98 350.858   1
   1  -4   5 8811.84 470.621   1
  -1   4   5 8587.10 370.760  10
   3   1   5 8032.46 353.485  10
   4  -3   6 1329.08 171.682   5
  -1   4   6 2046.35 238.086   8
  -3  -1   6 1679.69 170.096   4
   1  -4   6 1632.15 162.160   4
  -3  -1   6 1760.13 245.432   6
   3   1   6 1867.80 248.302   4
   3   1   6 1585.92 158.180  10
  -4   3   6 1659.50 228.070   4
  -3  -1   6 1372.84 105.118   5
  -1   4   6 1827.17 243.712   4
   4  -3   6 1294.42 148.054  10
   3   1   6 1635.11 177.122   1
   4  -3   6 1537.61 228.031   1
   1  -4   6 1691.68 164.253  10
   1  -4   6 1383.70 221.080   1
   1  -4   6 1517.78 210.403   6
  -1   4   7 6364.55 461.028   4
   3   1   7 6732.61 481.062   4
  -1   4   7 7455.18 464.575   8
   4  -3   7 6938.68 476.340   1
  -3  -1   7 7464.22 381.445   4
  -3  -1   7 7194.43 500.166   6
   1  -4   7 6477.85 431.215   6
   1  -4   7 6564.85 474.984   1
   4  -3   7 6685.03 287.380  10
   1  -4   7 6344.81 343.010   4
   3   1   7 6652.95 364.641   1
  -4   3   7 7469.23 481.487   4
  -4   3   8 1246.17 235.333   4
   1  -4   8 1421.81 185.863   4
  -3  -1   8 1339.21 191.401   4
   3   1   8 1268.29 187.168   1
   4  -3   8 1197.69 238.365   1
  -3  -1   8 1522.16 275.190   6
  -1   4   8 1443.76 265.396   4
   1  -4   8 1407.52 238.136   6
   3   1   8 2096.68 298.301   4
   1  -4   8 1688.03 275.686   1
   4  -3   9 1719.82 282.744   1
   1  -4   9 1895.04 290.865   6
  -4   3   9 1629.50 270.763   4
   4  -3   9 1550.72 278.906   4
   1  -4  10 386.454 186.170   6
   4  -2  -9-31.6604 118.166   2
   2   2  -9-182.671 153.622   2
  -2  -2  -9-251.177 211.992   3
  -2   4  -9-54.8165 123.095   2
   2   2  -8 4470.81 406.426   2
   2  -4  -8 3908.85 409.130   3
  -4   2  -8 4853.91 350.380   3
  -4   2  -8 4413.45 334.624   5
   4  -2  -8 4218.33 359.676   2
  -2  -2  -8 4647.44 437.020   3
  -2   4  -7 289.127 112.957   7
   4  -2  -7 276.994 130.226   2
   2  -4  -7 362.580 88.2703  10
   2   2  -7 269.478 122.508   2
  -4   2  -7 372.976 122.722   5
  -2  -2  -7 394.817 144.694   3
  -4   2  -7 425.474 127.722   3
  -2  -2  -7 456.108 158.243   5
   2  -4  -7 168.016 151.708   3
   2   2  -6 2876.19 291.561   2
   2  -4  -6 2838.26 212.482   7
  -2  -2  -6 2852.87 145.360   2
   2  -4  -6 2410.37 193.212   1
  -4   2  -6 2827.17 222.818   3
  -2  -2  -6 2618.43 273.791   5
  -4   2  -6 2842.95 252.883   5
   2  -4  -6 2526.75 192.082  10
  -2   4  -6 2851.46 234.121   7
   2  -4  -6 2984.37 144.443   2
  -2  -2  -6 2428.76 196.753   1
   2   2  -6 2747.08 193.988  10
   4  -2  -6 2486.10 245.238   2
  -2  -2  -6 2724.59 288.156   3
   2  -4  -6 2470.73 286.302   3
   4  -2  -5 1459.73 189.484   2
  -2   4  -5 1496.88 176.572   7
   2  -4  -5 1304.55 137.482   1
  -2   4  -5 1474.69 88.6646   5
  -2  -2  -5 1414.85 128.540   9
  -2  -2  -5 1636.09 229.587   3
  -2  -2  -5 1299.65 95.7085   2
  -4   2  -5 1511.94 153.436   3
   2   2  -5 1289.24 191.917   2
   2  -4  -5 1478.42 161.021   7
   2  -4  -5 1424.89 224.361   3
  -2  -2  -5 1639.42 230.035   5
   2   2  -5 1347.68 147.493  10
  -4   2  -5 1603.59 199.267   5
   2  -4  -5 1292.43 152.018  10
   2  -4  -5 1425.75 98.3347   2
   2   2  -4 31770.5 850.655   2
  -4   2  -4 32337.6 806.358   5
   2  -4  -4 32518.8 736.924  10
  -2  -2  -4 31668.3 845.676   3
   2  -4  -4 33492.3 752.345   7
  -2  -2  -4 32522.8 581.286   9
  -2  -2  -4 31259.6 524.115   2
  -4   2  -4 32208.4 621.512   3
   2  -4  -4 33456.1 891.934   3
  -2  -2  -4 30320.1 837.851   5
  -2   4  -4 32351.9 552.618   5
   2  -4  -4 32652.9 527.937   2
  -4   2  -4 33131.5 841.240   2
   2   2  -4 30918.7 716.818  10
   2  -4  -4 31954.1 617.559   1
   4  -2  -4 32905.8 816.260   2
  -2   4  -4 33194.8 784.081   7
   4  -2  -4 32151.6 807.919   4
  -4   2  -3 134.798 94.9443   9
  -2   4  -3-39.5333 94.9554   1
   2   2  -3 19.6844 26.2290   4
  -4   2  -3-115.284 107.773   5
  -2   4  -3 61.3512 81.9546   7
   2  -4  -3 44.8123 83.7760   4
  -4   2  -3 74.4657 99.7952   2
   2  -4  -3-31.1295 76.3611   7
  -2  -2  -3-11.7466 81.5679   8
   2  -4  -3 118.401 55.5697   9
   4  -2  -3-21.1763 82.1988   2
  -2  -2  -3 33.4433 41.2177   2
   2   2  -3 70.5251 68.2227  10
  -4   2  -3 39.6670 42.9722   3
  -2  -2  -3 30.2262 84.4666   3
   2   2  -3 173.043 106.005   2
   2  -4  -3-36.5481 118.568   3
  -2  -2  -3-2.30045 94.8969   5
   4  -2  -3 71.0528 77.3594   4
   2  -4  -3 53.3753 82.0202  10
  -2   4  -3 38.2975 53.0637   5
   2   2  -3-23.5159 48.2286   5
   2  -4  -3 68.9929 50.4780   1
   2   2  -3 138.888 88.8405   1
   2  -4  -2 24344.4 616.790   4
  -2  -2  -2 24593.3 643.582   8
  -2  -2  -2 23730.2 464.544   2
   2  -4  -2 24326.5 482.045   9
   4  -2  -2 23855.2 633.605   2
   2  -4  -2 23812.3 615.563   7
   2  -4  -2 24753.4 630.664   3
  -2   4  -2 23619.7 615.771  10
  -2  -2  -2 25092.0 662.790   5
   2   2  -2 24009.5 652.297   6
  -2   4  -2 23783.6 508.247   6
   2   2  -2 22828.3 346.272   4
   2   2  -2 24121.5 634.941   2
  -2  -2  -2 24157.4 643.453   3
   2   2  -2 24309.4 516.296   5
  -2   4  -2 23777.0 635.387   1
  -2   4  -2 24605.6 638.760   7
  -4   2  -2 23764.1 640.196   5
   4  -2  -2 24886.8 628.258   4
   2   2  -2 23846.6 602.935   1
  -2   4  -2 23142.3 504.385   3
   2   2  -2 24604.0 621.333  10
  -4   2  -2 23174.9 641.694   9
  -4   2  -2 23841.0 649.979   2
   2  -4  -2 24091.2 618.470  10
  -2   4  -1 5196.48 284.653   7
   2   2  -1 5176.65 263.457   2
   2   2  -1 5048.37 273.477  10
   2   2  -1 5736.26 245.490   8
   2  -4  -1 5065.08 249.445   4
   2   2  -1 5449.96 158.987   4
   2   2  -1 5236.47 241.788   1
  -2  -2  -1 5292.29 267.530   8
  -2  -2  -1 5505.88 285.437   3
   2   2  -1 5366.13 283.977   3
  -2   4  -1 5089.29 217.495   3
   2  -4  -1 5496.64 259.273   3
   2  -4  -1 5296.31 279.151  10
  -2  -2  -1 5395.28 223.503   2
  -2   4  -1 5028.41 212.323   6
  -2  -2  -1 5795.40 291.622   5
  -2   4  -1 5718.37 291.415  10
   4  -2  -1 5223.91 272.248   4
   2   2  -1 5605.44 249.995   5
  -4   2  -1 5598.31 298.205   5
  -2   4  -1 5561.12 230.574   4
  -4   2  -1 4998.92 281.084   2
   2  -4  -1 5781.93 229.281   1
   4  -2  -1 5219.16 287.285   2
  -2   4  -1 5579.25 272.898   1
  -4   2  -1 4895.83 280.112   9
   2  -4  -1 5232.51 276.848   7
   2   2  -1 5493.86 288.487   6
  -2   4   0 26729.0 666.130   7
   2   2   0 27106.4 603.128   8
   2  -4   0 26117.8 553.827   3
   4  -2   0 26528.6 643.418   4
   2  -4   0 26072.9 565.676   4
   4  -2   0 26612.0 656.049   9
  -4   2   0 26634.7 481.911   6
   2   2   0 27615.5 661.314   3
  -2  -2   0 28114.1 669.289   6
  -4   2   0 27007.6 665.950   2
  -2   4   0 27004.5 573.355   3
   2  -4   0 25723.5 563.853   1
   2   2   0 28309.7 633.740   5
  -2  -2   0 27265.4 622.321   5
  -4   2   0 25594.3 652.576   5
   4  -2   0 27365.4 670.748   5
  -4   2   0 25959.6 644.294   4
  -2   4   0 26389.9 568.728   9
   2  -4   0 26054.4 653.845   7
  -2  -2   0 26067.7 576.478   2
   4  -2   0 27637.9 672.127   2
   2  -4   0 26418.7 654.001  10
   2   2   0 26469.8 522.532   1
   2   2   0 27401.6 587.746   2
  -2   4   0 26291.1 654.932  10
  -2   4   0 27253.2 578.001   4
  -2   4   0 26361.3 550.767   6
   2   2   0 27671.2 661.568  10
   2   2   0 27777.5 662.933   6
   2   2   1 5623.39 287.781   3
   2   2   1 5437.76 279.050   8
   4  -2   1 5202.40 167.024   6
  -4   2   1 5645.35 284.045   4
   2  -4   1 5240.57 224.508   4
   2   2   1 5231.86 276.332  10
  -4   2   1 5526.74 232.731   6
   2  -4   1 5960.91 299.630   7
  -2  -2   1 5603.84 293.317   6
   2   2   1 5396.01 285.782   6
   4  -2   1 5598.56 174.106   3
  -2   4   1 5364.04 215.102   9
   2  -4   1 5482.84 287.661  10
  -2   4   1 5452.86 270.363   3
  -2  -2   1 5342.46 244.152   5
   2   2   1 5341.99 282.208   5
  -4   2   1 5428.18 288.191   2
  -4   2   1 5290.94 288.547   5
  -2   4   1 5118.11 227.815   2
   4  -2   1 5279.10 290.142   2
   4  -2   1 5402.26 288.635   4
  -2   4   1 5422.37 259.669   4
   4  -2   1 5062.33 274.805   9
   2  -4   1 5158.27 257.224   1
  -2   4   1 5564.31 293.262   7
   4  -2   1 5387.33 290.637   5
  -2   4   1 5231.52 282.644  10
   2   2   1 5282.36 221.315   2
  -2  -2   1 5271.16 263.896   2
  -2   4   2 24043.1 470.355   2
  -4   2   2 22817.2 619.881   5
   2  -4   2 23998.1 518.082   4
   2  -4   2 23578.3 624.426   7
  -2   4   2 23788.4 622.884  10
  -2   4   2 24141.5 617.753   4
   2  -4   2 23979.9 509.381   6
   2   2   2 24579.6 652.693   6
   2   2   2 23823.3 641.175   8
   2   2   2 23680.9 474.745   2
  -2  -2   2 23905.4 594.408   1
  -4   2   2 23444.5 615.842   4
   4  -2   2 23284.1 405.562   3
  -2  -2   2 23865.4 500.250   5
   2   2   2 23808.4 650.251   5
   4  -2   2 23807.0 407.555   6
   4  -2   2 23766.5 640.078   5
  -2  -2   2 24772.6 662.972   6
   2   2   2 23595.0 639.144   3
   4  -2   2 22474.3 636.104   1
   2   2   2 23369.6 425.378   1
   2  -4   2 23565.9 611.318  10
   2  -4   2 23520.4 622.784   1
   2   2   2 25320.2 629.212  10
  -4   2   2 23133.0 616.382   2
   2   2   3-23.7622 48.3156   2
  -2  -2   3 78.3842 97.4507   6
   2  -4   3 0.22682 60.7336   4
   2   2   3-94.6980 112.774   8
   2   2   3-17.8049 59.5333   7
   2  -4   3 160.547 104.605   1
  -2   4   3 86.0927 95.7357   4
   2  -4   3 106.790 87.6335   7
   4  -2   3 21.4523 73.9836   7
  -2   4   3 17.8510 85.4400   8
  -2  -2   3-3.16461 27.0590   4
  -2  -2   3-63.3024 94.9378   1
   4  -2   3 34.6661 44.2000   6
   2   2   3-62.2624 89.1886   5
  -2   4   3 15.5975 37.4147   2
  -4   2   3-35.7845 83.4929   2
   2   2   3 302.121 131.959   3
   2   2   3-7.52487 65.3386  10
   2   2   3 265.494 52.9862   1
  -2  -2   3-1.87550 44.1988   5
   2  -4   3 94.4828 81.9109  10
   4  -2   3 65.3099 78.0921   5
  -4   2   3-10.6217 87.3270   5
  -4   2   3 143.931 87.9945   4
   4  -2   3 14.7540 90.3999   1
   2  -4   3 91.0457 64.4318   6
  -4   2   4 31497.8 792.842   2
   2   2   4 32465.2 872.152   8
  -2  -2   4 32230.7 865.173   6
  -2   4   4 32755.0 512.326   2
   2   2   4 32834.6 579.062   1
   4  -2   4 32089.0 631.640   7
   2  -4   4 30664.4 844.112   1
  -4   2   4 32794.2 822.799   4
   2  -4   4 33180.2 720.743   6
  -4   2   4 31878.8 780.895   5
   4  -2   4 32660.1 851.061   1
  -2  -2   4 30883.1 486.911   5
  -2   4   4 32380.6 778.062   8
   2   2   4 32384.5 569.211   7
   4  -2   4 32265.6 806.000   5
  -2   4   4 31785.5 847.843   4
  -2  -2   4 32342.9 831.940   1
   2   2   4 32204.0 729.713  10
   2   2   4 31372.0 836.147   4
   2  -4   4 32623.8 737.937  10
  -2  -2   4 32753.1 556.463   4
   2  -4   5 1497.07 158.721  10
  -2  -2   5 1478.18 216.303   1
  -2   4   5 1452.47 183.685   8
   4  -2   5 1421.03 114.192   7
   4  -2   5 1494.45 208.683   1
  -2   4   5 1282.20 193.895   4
   2   2   5 1855.62 230.495   4
   2   2   5 1264.63 122.703   1
   2  -4   5 1662.52 184.413   6
   2  -4   5 1251.97 204.078   1
   2   2   5 1569.33 159.856  10
   4  -2   5 1275.76 184.806   5
  -4   2   5 1489.02 203.197   4
  -2  -2   5 1421.62 217.142   6
  -2  -2   5 1466.85 125.248   4
  -4   2   5 1256.18 172.015   5
   2  -4   6 2681.89 291.463   1
   2   2   6 2476.78 191.611  10
  -2   4   6 2939.88 260.290   8
   2  -4   6 2544.94 188.942  10
   2  -4   6 2909.78 249.149   6
   4  -2   6 2703.99 278.357   1
   2   2   6 3057.32 305.025   4
  -2   4   6 2899.64 294.011   4
  -4   2   6 2290.92 224.525   5
  -2  -2   6 2813.85 289.938   1
  -4   2   6 2471.11 256.659   4
  -2  -2   6 2862.14 292.820   6
  -2  -2   6 2917.77 201.362   4
   2   2   6 2963.93 198.519   1
   2   2   7 388.958 102.778   1
   2  -4   7 355.759 156.318   1
  -2   4   7 551.345 172.197   4
   4  -2   7 244.554 75.1576  10
  -2  -2   7 385.525 168.396   6
   2   2   7 433.516 161.788   4
  -4   2   7 253.705 134.234   4
   2  -4   7 411.945 120.420   4
   2  -4   7 214.313 117.661   6
  -2   4   7 329.969 144.137   8
   2  -4   7 250.382 74.7806  10
  -4   2   7 213.334 124.045   5
  -2  -2   7 378.844 98.9579   4
   4  -2   7 610.321 159.167   1
  -2  -2   7 528.506 166.920   1
   2   2   8 4924.19 441.544   4
   2  -4   8 4609.65 352.860   4
  -4   2   8 4348.58 319.463   5
   4  -2   8 4318.84 389.635   1
   2  -4   8 5520.17 398.853   6
  -2  -2   8 5489.75 465.886   6
  -2   4   8 4828.04 429.879   4
  -2  -2   8 4813.91 418.751   1
  -4   2   8 4014.56 374.984   4
  -2  -2   8 4447.71 305.145   4
   2  -4   8 4080.76 404.582   1
   2  -4   9 211.183 174.523   1
  -2  -2   9 253.413 189.146   6
   2  -4   9-58.7648 129.885   6
   4  -2   9 96.0966 122.844   1
   2  -4   9-23.7004 106.401   4
  -4   2   9-48.0169 156.108   4
   4  -2   9-57.9595 140.155   4
  -2  -2   9 110.526 155.435   1
  -2   4   9 85.3003 134.766   4
  -4   1  -9 1594.71 245.084   3
   4  -1  -9 2052.86 300.522   2
   1   3  -9 1276.45 249.077   2
  -1  -3  -9 1680.94 299.879   3
  -4   1  -8 1444.34 217.575   5
   4  -1  -8 1095.31 211.386   2
  -4   1  -8 953.238 182.078   3
   3  -4  -8 1635.38 312.550   3
   1   3  -8 1112.85 187.448   7
  -1  -3  -8 1520.78 274.487   3
   1   3  -8 1636.18 273.998   2
   1   3  -7 7329.56 490.698   2
   3  -4  -7 7496.59 331.018   2
   4  -1  -7 6461.94 438.490   2
  -3   4  -7 6474.55 332.685   7
  -4   1  -7 6986.85 431.904   5
  -1  -3  -7 6384.78 472.102   3
   3  -4  -7 7712.86 534.108   3
   3  -4  -7 7551.28 318.955  10
  -4   1  -7 6380.45 388.849   3
   1   3  -7 6695.26 400.435   7
   3  -4  -6 1579.52 182.731   7
   3  -4  -6 1728.44 163.532  10
   4  -1  -6 1689.26 215.814   2
  -3   4  -6 1441.19 127.823   5
   3  -4  -6 1600.53 180.140   1
  -4   1  -6 1642.14 187.547   3
  -1  -3  -6 1606.20 248.720   3
   1   3  -6 1885.40 247.809   2
  -4   1  -6 1198.89 187.642   5
   3  -4  -6 1576.58 237.674   3
  -1  -3  -6 1221.48 125.343   1
   1   3  -6 1557.40 154.218  10
   3  -4  -6 1627.57 150.703   2
  -3   4  -6 1262.90 163.809   7
   1   3  -5 8063.66 352.422  10
  -3   4  -5 8792.22 389.815   7
   3  -4  -5 8267.35 360.611   1
  -4   1  -5 8633.84 379.339   3
   4  -1  -5 8548.64 443.801   2
  -1  -3  -5 7855.25 454.908   3
  -4   1  -5 9027.00 438.319   9
  -1  -3  -5 8256.80 454.530   5
   3  -4  -5 8358.98 478.082   3
  -3   4  -5 8674.89 313.019   5
   3  -4  -5 8031.78 389.738   7
   1   3  -5 8612.04 464.636   2
  -4   1  -5 8300.93 409.034   2
  -4   1  -5 8587.65 437.301   5
   3  -4  -5 8957.49 333.035   2
   3  -4  -5 8844.68 370.185  10
   3  -4  -4 4722.81 296.080   7
  -3   4  -4 5730.07 313.926   7
   3  -4  -4 5023.40 286.252  10
  -4   1  -4 6221.45 352.985   5
   3  -4  -4 5537.10 360.753   3
  -1  -3  -4 5040.02 337.632   5
  -4   1  -4 5756.52 330.532   9
   1   3  -4 4870.04 332.447   2
  -1  -3  -4 5292.40 352.312   3
   4  -1  -4 5391.15 300.999   4
  -3   4  -4 5257.99 247.236   5
  -4   1  -4 5893.02 278.941   3
   3  -4  -4 5358.92 270.229   1
   3  -4  -4 5119.71 241.923   2
  -4   1  -4 5548.17 319.066   2
   1   3  -4 5169.84 282.504  10
   4  -1  -4 5556.44 344.329   2
  -4   1  -3 12369.7 456.250   9
  -4   1  -3 12826.0 506.443   8
  -1  -3  -3 12427.7 486.720   8
   1   3  -3 11821.4 458.177   1
   1   3  -3 13233.5 499.151   2
   3  -4  -3 12246.8 464.511   7
  -3   4  -3 12836.1 461.408   7
   1   3  -3 13094.3 494.421   6
  -4   1  -3 12465.5 376.475   3
  -1  -3  -3 12576.4 502.042   3
   1   3  -3 12880.8 282.552   5
   1   3  -3 12672.0 440.975  10
   3  -4  -3 12959.7 493.095   3
  -3   4  -3 12889.7 302.653   3
  -4   1  -3 12361.5 484.424   5
  -3   4  -3 12808.2 395.360   5
  -3   4  -3 12897.3 517.915   1
   3  -4  -3 12572.5 450.590  10
   4  -1  -3 13033.2 491.701   1
   3  -4  -3 12588.8 382.829   2
  -4   1  -3 13355.1 471.240   2
  -1  -3  -3 12753.5 502.098   5
   3  -4  -3 12647.9 485.918   4
   4  -1  -3 12941.5 495.242   2
   4  -1  -3 12097.3 432.058   4
  -4   1  -2 885.795 136.552   9
  -1  -3  -2 1013.83 142.342   8
   1   3  -2 1141.57 134.289   1
   3  -4  -2 794.121 112.123   2
   3  -4  -2 854.159 128.554   4
   1   3  -2 946.464 139.453   6
   3  -4  -2 880.957 133.386   7
  -3   4  -2 887.106 151.930   7
  -4   1  -2 758.797 120.024   2
   4  -1  -2 1011.06 126.395   4
  -3   4  -2 898.345 70.6559   3
   4  -1  -2 1341.44 166.869   2
   1   3  -2 1185.12 105.945   5
  -1  -3  -2 779.524 143.123   3
   1   3  -2 1009.72 138.040   2
  -1  -3  -2 1023.22 140.705   5
   3  -4  -2 855.735 134.055   3
   3  -4  -2 799.582 132.429  10
  -4   1  -2 1100.87 158.322   5
  -3   4  -2 838.077 113.384   5
   3  -4  -2 762.612 105.628   9
   1   3  -2 1119.02 141.144  10
  -1  -3  -2 932.698 128.239  10
  -4   1  -2 859.302 138.596   8
  -3   4  -2 1030.61 148.739   1
   1   3  -1 29800.7 711.811   3
  -4   1  -1 29422.8 667.359   8
   1   3  -1 30149.3 609.783   1
  -3   4  -1 29156.4 719.854   7
   3  -4  -1 30812.9 735.804   7
   1   3  -1 29180.9 697.443  10
  -3   4  -1 29385.5 471.044   6
   1   3  -1 30107.2 712.035   6
  -4   1  -1 28901.7 570.546   6
   3  -4  -1 30010.7 719.170  10
   3  -4  -1 29276.8 612.699   3
  -1  -3  -1 29950.8 700.447   5
   4  -1  -1 29632.7 665.994   4
  -4   1  -1 29149.7 724.128   5
  -3   4  -1 29547.7 486.958   3
   4  -1  -1 29341.0 703.093   5
  -3   4  -1 29179.1 697.332   9
  -3   4  -1 29986.5 720.263   2
  -3   4  -1 29583.5 659.091   4
  -1  -3  -1 29949.3 721.247   3
   4  -1  -1 29681.2 720.929   2
  -4   1  -1 30502.0 709.215   2
  -1  -3  -1 29247.4 702.219  10
   1   3  -1 30370.8 668.060   2
   1   3  -1 29405.1 608.709   5
   3  -4  -1 29532.8 688.714   4
   3  -4  -1 29459.2 640.476   9
   4  -1   0 16405.8 499.023   9
  -1  -3   0 16302.4 458.647   5
   1   3   0 15336.8 468.985   8
   1   3   0 15906.5 421.385   2
   4  -1   0 15733.7 500.492   2
   4  -1   0 15385.4 413.022   6
  -3   4   0 14880.8 351.586   6
   3  -4   0 15650.8 502.642   7
  -3   4   0 16008.3 481.501   2
   3  -4   0 15858.1 504.534  10
   3  -4   0 16111.2 474.460   1
  -1  -3   0 16388.4 503.879  10
   1   3   0 15984.4 498.074   6
  -4   1   0 15927.3 411.839   6
   1   3   0 15598.2 497.922   3
   3  -4   0 15795.0 465.089   4
   1   3   0 16062.5 360.124   1
  -4   1   0 15483.0 499.957   5
   1   3   0 15571.0 455.520   5
  -4   1   0 16449.7 503.037   2
   3  -4   0 15586.7 364.129   3
   4  -1   0 15324.0 498.751   5
   1   3   0 15700.3 332.652   4
   4  -1   0 16128.1 479.781   4
   1   3   0 15719.9 496.240  10
  -3   4   0 15345.2 457.796   9
  -4   1   0 15713.5 414.216   8
  -3   4   0 15494.0 463.394   4
  -1  -3   0 16002.2 507.030   6
   1   3   1 29143.1 694.992   8
  -1  -3   1 29392.2 705.490   6
   1   3   1 29312.7 582.656   4
  -4   1   1 28885.3 630.819   6
   1   3   1 29719.9 428.855   1
   4  -1   1 28460.2 695.023   4
   1   3   1 28628.6 658.057   7
  -4   1   1 27634.0 502.260   8
   4  -1   1 28277.7 565.345   6
  -4   1   1 29159.2 662.567   4
   1   3   1 29424.3 715.514   6
   1   3   1 29309.3 716.098   3
   3  -4   1 28975.0 703.875   7
   3  -4   1 29618.1 710.143  10
  -1  -3   1 29154.6 595.537   5
   1   3   1 29571.8 694.096   5
   1   3   1 29678.5 542.402   2
  -4   1   1 28325.1 693.742   5
   4  -1   1 28793.9 720.496   5
  -3   4   1 29538.4 691.981   4
   4  -1   1 28477.5 569.807   3
   4  -1   1 28889.2 677.017   9
   1   3   1 29732.0 704.649  10
   4  -1   1 28494.3 691.834   2
  -3   4   1 28814.8 637.152   2
  -1  -3   1 28938.3 592.861   1
   3  -4   1 29945.1 659.246   4
   3  -4   1 30026.2 698.617   1
  -1  -3   1 29191.1 697.996  10
  -4   1   1 29535.5 709.115   2
   4  -1   2 1184.59 152.322   2
   1   3   2 1070.76 128.399   7
  -1  -3   2 1043.10 130.387   1
   1   3   2 1156.31 159.205   8
  -3   4   2 1037.86 148.615   4
   3  -4   2 1053.61 138.658   7
   1   3   2 1236.87 138.064   4
  -4   1   2 925.527 132.916   6
  -1  -3   2 1129.16 154.602   6
   1   3   2 1080.20 147.651   6
   3  -4   2 1089.84 128.106   4
  -1  -3   2 1160.07 101.264   5
  -4   1   2 953.187 52.4851   8
  -4   1   2 977.169 143.139   2
   3  -4   2 1111.28 79.4064   6
   3  -4   2 1199.81 159.369   1
   4  -1   2 1061.73 105.385   3
   1   3   2 1029.22 160.287   3
   4  -1   2 1140.77 152.125   1
   1   3   2 1252.99 83.1565   2
   1   3   2 1126.65 149.642   5
   4  -1   2 1039.09 142.188   5
  -4   1   2 1054.16 144.225   5
  -3   4   2 1230.63 126.988   2
   3  -4   2 980.664 142.678  10
   4  -1   2 891.910 100.396   6
   1   3   2 1007.24 133.290  10
  -4   1   2 1084.83 135.137   4
  -1  -3   2 845.601 125.149  10
   1   3   3 11774.7 496.679   3
   1   3   3 12121.6 379.176   7
   1   3   3 11657.2 443.262   4
   1   3   3 11260.0 467.615   8
  -4   1   3 11488.7 459.541   2
  -4   1   3 12359.1 473.111   6
  -1  -3   3 11135.8 455.348   6
   3  -4   3 12227.7 308.585   6
  -1  -3   3 11900.6 451.588   1
   3  -4   3 12568.8 499.524   1
   4  -1   3 12003.4 374.967   6
  -3   4   3 11623.7 465.967   4
   4  -1   3 11215.5 365.261   3
   1   3   3 11521.5 469.835   5
   1   3   3 12291.8 437.414  10
   3  -4   3 12076.6 425.291   4
   4  -1   3 11991.4 477.287   5
  -4   1   3 11940.5 429.496   5
   4  -1   3 12116.1 455.981   1
   3  -4   3 12332.6 443.242   7
  -3   4   3 12158.1 362.138   2
  -4   1   3 11638.2 418.861   4
   3  -4   3 11695.9 429.676  10
  -3   4   3 11800.4 401.722   8
   1   3   4 5252.32 354.652   8
  -1  -3   4 4936.95 148.037   4
  -3   4   4 5046.56 234.417   2
   3  -4   4 5531.76 298.020   7
   1   3   4 5613.37 243.648   7
   3  -4   4 4423.69 329.885   1
  -4   1   4 5530.05 350.162   6
   3  -4   4 5459.09 239.493   6
   4  -1   4 5671.11 328.641   1
   3  -4   4 4521.37 268.082  10
   1   3   4 5453.36 289.947  10
   4  -1   4 5458.53 336.391   5
  -4   1   4 5598.18 300.218   5
  -3   4   4 5343.48 280.629   8
   1   3   4 5174.26 329.633   4
  -1  -3   4 4972.50 327.596   6
  -1  -3   4 5428.81 336.091   1
  -3   4   4 4895.54 332.002   4
  -4   1   4 5387.94 303.081   4
  -3   4   5 9315.78 390.205   8
  -4   1   5 9277.96 429.287   4
  -3   4   5 9645.75 335.874   2
   4  -1   5 9640.78 242.916   7
   3  -4   5 9502.72 494.093   1
   1   3   5 8905.58 468.349   4
  -4   1   5 9717.49 505.688   6
   3  -4   5 8900.15 355.221   6
   4  -1   5 9362.56 451.519   1
   1   3   5 8950.35 481.117   8
  -4   1   5 9725.96 402.979   5
   1   3   5 9463.24 253.133   1
  -3   4   5 9342.35 484.564   4
  -1  -3   5 9826.05 488.418   6
   1   3   5 8742.27 373.846  10
   3  -4   5 9566.55 382.450  10
  -1  -3   5 9303.00 476.089   1
  -1  -3   5 9434.26 280.318   4
  -3   4   6 1287.86 216.526   4
   4  -1   6 1667.33 217.680   1
  -1  -3   6 1390.67 214.111   1
  -1  -3   6 1692.87 143.225   4
   3  -4   6 1456.71 151.295  10
   1   3   6 1482.16 156.759  10
   1   3   6 1414.46 215.671   4
   1   3   6 1578.81 127.673   1
   3  -4   6 1521.73 176.362   6
  -3   4   6 1364.05 173.933   8
   3  -4   6 1143.05 209.106   1
  -1  -3   6 1507.25 223.509   6
  -4   1   6 1456.21 170.754   5
  -4   1   6 1638.38 210.677   4
   1   3   6 1959.93 257.975   8
   3  -4   7 6076.43 457.746   1
   1   3   7 6452.88 469.636   4
   4  -1   7 6129.50 411.594   1
   3  -4   7 6791.07 382.236   6
  -4   1   7 6457.02 342.888   5
  -4   1   7 6052.32 400.862   4
   1   3   7 6006.64 280.662   1
  -1  -3   7 6328.71 311.942   4
  -1  -3   7 5983.31 441.870   1
   3  -4   7 6202.58 275.150  10
  -3   4   7 6203.50 455.018   4
  -1  -3   7 6645.52 465.881   6
   3  -4   8 1537.84 237.305   4
  -4   1   8 1457.48 234.074   4
  -3   4   8 911.289 226.249   4
   4  -1   8 1262.08 243.805   4
   1   3   8 1339.21 248.231   4
  -4   1   8 1406.31 271.267   6
   3  -4   8 1334.89 202.895   6
   3  -4   8 1378.36 258.660   1
   4  -1   8 1413.78 231.709   1
  -1  -3   8 1280.35 245.822   1
  -1  -3   8 1234.91 248.643   6
  -3   4   9 1711.12 279.550   4
   3  -4   9 1309.31 264.228   1
   3  -4   9 2139.20 292.037   4
   4  -1   9 1898.59 307.479   4
  -1  -3   9 1650.09 287.775   6
   4  -1   9 1379.31 243.366   1
   4   0  -9 833.002 224.862   2
  -4   0  -9 900.807 232.070   3
  -4   0  -9 808.720 189.412   5
  -4   0  -8 559.468 158.266   9
  -4   0  -8 926.112 201.914   3
   4   0  -8 768.272 250.747   2
   0  -4  -8 1072.31 242.324   3
   0   4  -8 721.113 204.141   2
  -4   0  -8 716.975 179.581   5
   0   4  -8 752.943 164.119   7
   4  -4  -8 1285.03 280.848   3
   0   4  -7 9693.77 491.272   7
   4   0  -7 9636.81 562.344   2
   0   4  -7 8980.41 568.183   2
  -4   0  -7 9184.88 501.937   3
  -4   0  -7 9354.23 529.835   5
  -4   4  -7 9379.55 408.472   3
  -4   4  -7 9239.74 393.636   5
   0  -4  -7 10715.0 629.411   3
   4  -4  -7 10332.0 454.085   2
   4  -4  -7 9496.01 389.835  10
  -4   0  -7 9318.19 484.975   9
   4   0  -6 5477.02 403.295   2
   4  -4  -6 5874.82 315.473  10
   0   4  -6 5259.10 402.703   2
   0   4  -6 5380.35 362.086   7
  -4   4  -6 5674.21 280.073   3
  -4   0  -6 5500.46 358.748   3
   0  -4  -6 5716.10 432.338   3
  -4   0  -6 5119.89 375.868   5
   0   4  -6 4829.14 287.286  10
   4  -4  -6 5562.25 322.815   2
  -4   0  -6 4945.38 313.831   2
  -4   4  -6 5528.18 298.353   5
   4   0  -6 4962.92 292.600  10
  -4   0  -6 5376.56 346.233   9
  -4   0  -5 6276.34 336.118   2
   4  -4  -5 6076.95 324.369   2
   0   4  -5 5859.23 405.955   2
   0  -4  -5 6515.29 335.678  10
   4  -4  -5 6244.33 335.389  10
  -4   0  -5 6489.52 353.920   9
   0  -4  -5 6021.49 416.771   3
  -4   4  -5 5763.68 237.495   3
  -4   0  -5 6286.91 401.989   5
  -4   4  -5 6215.10 321.325   5
   4   0  -5 5884.54 318.840   4
   0   4  -5 6443.05 333.514  10
   0   4  -5 6048.67 371.071   7
   4   0  -5 6358.52 407.332   2
  -4   0  -5 5801.24 346.916   3
  -4   0  -4 97.2777 79.1738   9
   4   0  -4-64.4099 78.7947   4
   0   4  -4 27.7120 88.2851  10
   4  -4  -4 113.455 110.887  10
   4   0  -4 133.980 127.585   2
  -4   0  -4-25.7957 88.8018   2
  -4   0  -4 51.1558 92.6068   3
   0  -4  -4-158.284 144.803   3
  -4   4  -4 13.3856 36.0175   3
  -4   0  -4 55.1702 111.727   5
  -4   4  -4 50.3144 84.1722   5
   4  -4  -4-13.2988 89.7755   1
   0   4  -4-134.546 124.514   7
   4  -4  -4-18.3939 81.6975   2
   0  -4  -4 7.73959 92.8186  10
   4  -4  -3 162.855 87.3131   2
  -4   0  -3 124.131 91.0983   9
   0   4  -3 284.466 113.311   1
   0   4  -3 159.628 92.3537  10
   4   0  -3 156.575 76.8876   4
   0   4  -3 98.8441 101.058   7
   0   4  -3 138.561 98.1833   6
  -4   0  -3 82.8849 77.9159   2
   4   0  -3 91.6022 107.574   2
  -4   0  -3 71.2975 87.3752   3
   0  -4  -3 153.260 129.037   3
  -4   0  -3 109.097 91.0792   5
   0   4  -3 88.4931 41.3719   5
  -4   4  -3 118.556 92.7371   5
   4  -4  -3 165.522 108.676  10
   0  -4  -3 25.8289 87.9728  10
   4  -4  -2 4932.37 280.685   9
  -4   0  -2 4841.49 290.232   8
   4   0  -2 5048.96 309.683   2
   0   4  -2 4914.64 306.804   7
   0   4  -2 5362.41 286.355   1
   0   4  -2 4945.53 289.737   6
   0   4  -2 4699.71 280.318   3
   0   4  -2 4783.62 212.947   5
  -4   0  -2 4767.61 305.092   5
   4  -4  -2 4790.37 310.221   7
  -4   4  -2 5364.84 294.405   5
   4   0  -2 5113.93 283.741   5
   4  -4  -2 4886.52 304.238   4
  -4   4  -2 5216.53 326.255   2
   4   0  -2 5315.10 305.534   1
  -4   0  -2 4385.59 259.578   2
   0  -4  -2 4746.34 284.788  10
   0  -4  -2 4851.66 310.021   3
   4  -4  -2 5536.65 293.314   2
   0   4  -2 4453.13 278.941  10
   4   0  -2 5156.75 250.811   4
  -4   0  -2 5175.95 271.385   3
  -4   4  -2 4864.60 314.993   9
  -4   0  -1 43473.2 872.127   8
   4  -4  -1 42881.2 890.703   9
   0  -4  -1 44565.6 939.707   3
   4  -4  -1 42504.2 949.892   7
   4   0  -1 44475.1 904.453   6
   0   4  -1 43735.7 803.102   1
   0   4  -1 44194.1 916.276   3
   4  -4  -1 41576.7 769.823   3
   0   4  -1 43623.6 807.471   5
   0  -4  -1 44490.4 935.078  10
  -4   0  -1 43669.2 950.484   5
   4   0  -1 43814.0 908.778   5
  -4   4  -1 42611.3 908.352   5
   0   4  -1 43224.4 902.199   6
   4  -4  -1 42501.6 896.348   2
   4   0  -1 43901.3 936.439   2
  -4   4  -1 44340.4 962.815   2
   0  -4  -1 42784.7 570.133   1
   0   4  -1 45564.5 953.635   7
   0   4  -1 44795.7 938.323  10
   0   4  -1 44082.4 584.268   4
   4   0  -1 43591.3 822.903   4
  -4   0  -1 43984.3 846.236   6
   4  -4  -1 44236.8 932.044   4
  -4   0  -1 43084.3 887.485   2
  -4   4  -1 43666.0 948.870   9
  -4   4   0 14254.3 487.189   9
   4   0   0 13225.9 433.562   3
   0  -4   0 13924.8 476.878   3
   0   4   0 12721.7 465.260   7
   4  -4   0 15058.6 504.281   1
   0   4   0 13372.6 397.492   2
   4  -4   0 15226.4 523.249   7
  -4   0   0 13493.7 397.667   8
   4   0   0 13107.7 436.221   6
   0   4   0 12948.3 458.305   6
  -4   0   0 13987.3 439.985   6
   0   4   0 14069.9 354.523   1
   0   4   0 13557.1 472.471   3
   4  -4   0 14607.4 323.533   3
  -4   4   0 14279.7 485.862   4
   0   4   0 12890.9 427.865   5
   0  -4   0 14359.0 341.392   1
  -4   0   0 13105.7 473.407   5
   4   0   0 12662.3 473.142   5
  -4   4   0 14330.3 498.177   5
  -4   0   0 13013.8 461.915   2
  -4   4   0 14394.1 493.419   2
   4   0   0 13826.6 440.543   4
   0  -4   0 13293.4 479.088  10
   0   4   0 12313.8 465.657  10
   4   0   0 13191.0 465.005   2
   4  -4   0 15227.9 496.202   4
   0   4   0 12821.8 326.252   4
   0   4   1 43712.3 925.438   8
  -4   0   1 43812.8 710.538   8
   4  -4   1 42927.9 924.305   7
   0  -4   1 43494.1 909.050   6
  -4   0   1 44604.4 928.864   2
  -4   0   1 43426.3 884.225   6
   0   4   1 42859.9 925.798   6
   4   0   1 43373.4 843.920   3
   0   4   1 43263.1 936.380   3
   0   4   1 43929.4 909.170   5
  -4   0   1 42522.9 893.226   5
   4   0   1 43787.1 847.181   6
   4   0   1 44315.6 960.006   5
   0   4   1 44833.9 913.337   7
   4  -4   1 42040.2 936.270   1
   0  -4   1 44441.5 932.256  10
   0   4   1 43837.1 929.916  10
   0   4   1 43166.6 589.067   1
   0   4   1 42413.0 709.170   2
   4   0   1 42333.4 884.028   2
  -4   4   1 43114.9 889.953   2
   4  -4   1 43700.2 914.376   4
   0   4   1 44612.5 783.749   4
  -4   4   1 41803.3 912.763   4
   0  -4   1 42688.1 783.116   1
   4   0   1 43084.0 857.647   9
   0   4   2 4975.59 263.404   4
   0   4   2 4677.37 298.972   8
   0   4   2 4984.97 278.690   7
   4  -4   2 5074.85 294.038   7
   4   0   2 4991.23 264.124   3
  -4   4   2 5305.09 279.526   2
   4   0   2 5075.70 263.730   6
   0   4   2 4557.19 295.562   6
  -4   0   2 4988.16 296.328   6
   0   4   2 5203.85 326.765   3
   0   4   2 4597.92 295.438   5
   0   4   2 5040.32 157.689   2
   4  -4   2 4881.94 313.844   1
  -4   0   2 4811.25 271.447   5
   4   0   2 4636.07 307.140   5
   0  -4   2 4856.81 289.504   6
   4   0   2 5074.01 281.608   2
  -4   0   2 5098.51 304.484   2
   0  -4   2 4548.99 281.571  10
  -4   0   2 4821.69 246.687   4
  -4   4   2 5643.67 326.385   4
   4  -4   2 4888.97 289.070   4
   0   4   2 5220.77 301.239  10
   0  -4   2 5176.58 273.661   1
   4  -4   3 63.4002 78.6511   4
   0  -4   3-55.1820 97.4473   1
   0   4   3 79.1437 110.069   8
  -4   0   3 71.9513 70.3708   4
   4   0   3 97.2769 86.0248   2
   0  -4   3 111.659 79.7296  10
   0   4   3 5.74351 88.6334   7
  -4   4   3 18.3721 65.3581   8
   0   4   3 40.4869 77.9962  10
   0  -4   3 44.1488 89.4720   6
   4  -4   3 40.8484 18.4829   6
   4   0   3 178.381 83.9820   6
  -4   4   3 163.634 82.7925   2
  -4   0   3-13.8556 101.434   6
   4  -4   3 74.8222 110.686   1
   4   0   3 181.207 91.6362   3
   4   0   3 75.5326 88.0573   1
   0   4   3 142.550 93.7047   4
  -4   4   3 99.6214 105.887   4
  -4   0   3 60.9855 79.4047   5
   4  -4   3 88.3690 105.632  10
   4  -4   3 46.0192 84.5796   7
  -4   4   4-5.84280 66.5427   8
  -4   4   4-139.881 120.657   4
   0  -4   4 33.1641 23.9475   4
   0  -4   4 121.819 97.5936   6
   4  -4   4 94.9388 80.1532   7
   0  -4   4 1.16964 23.0719   4
   0   4   4 71.9721 102.837   4
   0   4   4 45.7065 93.3062   7
   0  -4   4 67.1954 110.739   1
  -4   0   4 10.4758 124.932   6
   4   0   4-49.6853 84.8383   6
   4  -4   4 65.0321 99.4384  10
  -4   4   4 53.4869 80.5751   2
  -4   0   4-18.4639 77.4778   4
   4   0   4 100.154 106.588   1
   4  -4   4 51.5997 43.7066   6
   4   0   4 123.191 113.727   3
  -4   0   4 75.0748 92.9263   5
   4  -4   4-39.7552 117.018   1
   0   4   4 38.9214 137.401   8
   0  -4   4 9.15106 87.4974  10
   0   4   4 51.9283 80.8018  10
   0  -4   5 6764.85 225.138   4
  -4   4   5 6236.27 285.112   8
   0   4   5 6267.71 404.268   8
   4  -4   5 5923.92 310.959   7
   4  -4   5 5954.29 322.648  10
   4   0   5 6379.25 192.986   7
   0   4   5 6855.33 411.308   4
   4  -4   5 5989.97 413.593   1
   4  -4   5 6139.27 261.308   6
  -4   0   5 5834.42 399.308   6
   0  -4   5 6430.29 391.031   6
  -4   0   5 6629.69 311.814   5
   4  -4   5 5790.74 310.676   5
   4   0   5 5889.68 341.742   1
  -4   0   5 6408.60 331.988   4
   0  -4   5 6560.68 410.249   1
  -4   4   5 5899.13 311.215   2
   0   4   5 5494.05 317.289  10
   0  -4   5 6621.92 334.757  10
  -4   4   5 5971.50 398.169   4
   0   4   6 5455.06 406.542   4
   0   4   6 5684.88 401.344   8
   4   0   6 4950.85 288.860  10
   0  -4   6 5126.48 380.177   6
  -4   4   6 5427.70 281.475   8
  -4   4   6 4704.31 293.540   2
   0  -4   6 5673.54 410.464   1
   4  -4   6 5497.52 416.419   1
   4   0   6 5390.36 340.130   1
   4  -4   6 6090.05 302.320   6
  -4   0   6 5636.51 429.206   6
  -4   0   6 5560.86 284.915   5
   0  -4   6 5395.64 243.015   4
   4  -4   6 5643.02 307.949   5
  -4   0   6 4976.07 317.849   4
  -4   4   6 5876.54 413.985   4
   0   4   6 5162.27 302.747  10
   4  -4   6 5244.73 292.091  10
   0  -4   7 9989.74 380.814   4
   0   4   7 10257.9 569.057   8
   4  -4   7 8622.01 549.976   1
   4  -4   7 9414.30 428.216   6
  -4   0   7 9178.28 581.911   6
   0  -4   7 10896.2 579.818   6
   4   0   7 8578.77 458.892   1
   0   4   7 9993.94 578.899   4
   4  -4   7 8786.90 362.167  10
  -4   0   7 9282.46 462.118   4
   0  -4   7 9716.37 575.480   1
  -4   4   7 9177.91 562.510   4
   0  -4   8 1344.24 252.810   1
  -4   4   8 934.772 225.800   4
   0   4   8 1218.84 247.819   4
   4   0   8 828.062 219.856   4
  -4   0   8 956.030 252.854   6
   4   0   8 677.013 154.908   1
   4  -4   8 951.482 228.067   1
   0  -4   8 761.679 197.048   6
  -4   0   8 863.921 166.982   4
   4  -4   9 534.255 178.607   4
   0  -4   9 731.078 208.700   6
  -4  -1  -9-4.05702 155.390   3
  -4  -1  -9 192.275 172.316   5
  -4  -1  -8 2883.59 338.476   5
  -1   5  -8 3009.04 307.978   7
   4   1  -8 2826.35 350.291   2
  -4  -1  -8 2999.93 352.951   3
   1  -5  -8 2633.68 369.615   3
  -1   5  -8 2673.09 343.360   2
  -4  -1  -7 19.4174 80.4827   9
   1  -5  -7 267.872 178.084   3
   5  -4  -7 67.8311 93.7142   2
   4   1  -7-153.805 133.088   2
  -4  -1  -7-40.0029 131.528   3
  -1   5  -7 71.3211 106.312   7
  -4  -1  -7 174.573 121.851   5
  -5   4  -7-25.4691 89.5629   5
  -1   5  -7-7.05463 114.302   2
  -4  -1  -6 11680.8 474.402   9
  -1   5  -6 11257.5 541.088   7
  -5   4  -6 11249.2 336.097   3
   1  -5  -6 10612.7 609.981   3
  -4  -1  -6 11617.2 604.633   5
  -5   4  -6 11229.4 494.311   5
   5  -4  -6 10168.3 463.594  10
   5  -4  -6 10626.9 504.926   2
   1  -5  -6 11596.1 480.800  10
  -4  -1  -6 11057.8 551.202   3
   4   1  -6 11337.7 603.417   2
  -4  -1  -5 20.2486 74.8667   9
   5  -4  -5 171.858 107.481   2
   4   1  -5 7.41713 58.7942   4
  -4  -1  -5 114.472 72.7081   2
   4   1  -5-17.6367 127.418   2
  -1   5  -5 110.805 104.083   7
  -4  -1  -5-24.3147 108.385   3
  -5   4  -5 69.9051 31.7928   3
   1  -5  -5 149.807 111.171   3
   1  -5  -5 197.274 76.9369   7
  -4  -1  -5 82.2479 109.588   5
  -5   4  -5 109.287 98.9755   5
   1  -5  -5 133.175 99.4689  10
   4   1  -4 3917.83 134.807   8
   1  -5  -4 4650.55 362.668   3
   1  -5  -4 4277.12 273.833   7
  -1   5  -4 4577.07 330.223   7
  -4  -1  -4 4563.57 319.279   3
  -4  -1  -4 4113.70 335.842   5
  -1   5  -4 4385.10 149.682   5
  -5   4  -4 4324.86 308.996   5
  -1   5  -4 4342.03 147.916   5
   1  -5  -4 5028.49 322.143  10
   4   1  -4 4467.99 234.869   4
   5  -4  -4 4290.08 305.326   2
  -5   4  -4 4331.33 349.119   9
   4   1  -4 4388.48 338.429   2
  -4  -1  -4 4294.54 258.886   2
  -5   4  -3 665.326 153.956   9
  -4  -1  -3 531.238 105.761   2
   4   1  -3 685.648 79.8643   8
   4   1  -3 771.641 106.495   4
   1  -5  -3 865.658 144.316   7
  -1   5  -3 975.118 183.460   7
   5  -4  -3 699.885 154.136   2
  -1   5  -3 711.790 143.630   6
  -1   5  -3 746.333 132.816   3
  -4  -1  -3 798.011 150.808   3
   1  -5  -3 492.989 147.768   3
  -1   5  -3 760.660 92.3814   5
  -4  -1  -3 750.539 166.295   5
  -5   4  -3 881.968 159.750   5
   4   1  -3 783.906 164.255   2
   4   1  -3 638.507 120.849   5
   1  -5  -3 897.241 156.855  10
   5  -4  -2 13094.2 513.081   9
  -1   5  -2 11747.1 456.385   6
   1  -5  -2 11154.9 205.173   1
  -4  -1  -2 12862.1 498.476   8
   1  -5  -2 12316.4 451.215   4
   4   1  -2 13132.6 357.176   8
   1  -5  -2 12854.2 486.494   7
  -1   5  -2 12797.1 525.132   7
  -4  -1  -2 11574.1 468.345   3
  -1   5  -2 11765.9 456.841   3
   1  -5  -2 12735.8 513.723   3
  -1   5  -2 13194.7 400.975   5
  -4  -1  -2 13557.6 545.043   5
  -5   4  -2 13296.2 516.794   5
   4   1  -2 12986.8 466.823   5
   1  -5  -2 12577.9 495.843  10
   5  -4  -2 12639.2 503.183   2
   4   1  -2 12000.4 477.535   1
   4   1  -2 12886.2 520.440   2
   4   1  -2 12858.9 381.321   4
  -4  -1  -2 12132.4 432.937   2
  -1   5  -2 12115.7 463.451   1
  -5   4  -2 13514.0 549.140   9
  -4  -1  -1 2012.47 185.208   2
  -5   4  -1 2196.97 232.068   9
  -4  -1  -1 2310.75 202.967   8
   1  -5  -1 1990.23 117.205   1
   1  -5  -1 1995.04 201.539   7
  -1   5  -1 2000.35 218.522   7
   5  -4  -1 1870.55 205.715   2
   1  -5  -1 1977.28 212.648  10
  -1   5  -1 1923.96 185.366   6
   1  -5  -1 2003.90 202.975   3
  -4  -1  -1 2431.02 215.173   6
  -1   5  -1 1850.31 188.008   3
  -1   5  -1 1646.15 198.226  10
   4   1  -1 2452.39 226.124   2
   4   1  -1 2176.37 212.906   6
  -1   5  -1 2164.52 181.685   5
   4   1  -1 2300.75 173.460   8
   5  -4  -1 2181.11 212.567   9
  -4  -1  -1 2294.51 228.756   5
  -1   5  -1 1667.25 165.055   1
   4   1  -1 2372.95 214.170   5
   4   1  -1 2287.25 167.186   4
   4   1  -1 1990.95 191.672   1
  -5   4  -1 1971.82 216.526   5
  -1   5  -1 2095.10 132.852   4
   1  -5  -1 1870.85 161.449   4
  -1   5   0 50778.0 1009.33   6
   4   1   0 48628.7 936.455   8
   1  -5   0 49132.3 823.169   1
  -4  -1   0 49281.2 922.870   8
   5  -4   0 47849.8 1048.50   4
  -1   5   0 51726.4 1081.61   7
  -5   4   0 49548.9 679.036   6
   4   1   0 49568.6 1027.87   6
   1  -5   0 50401.8 1009.41   3
   4   1   0 47609.4 911.922   4
   4   1   0 49058.9 1019.26   3
  -4  -1   0 49472.3 1020.77   6
  -1   5   0 49777.5 1023.63   3
  -5   4   0 50963.8 1077.49   4
   5  -4   0 48958.0 738.688   3
   5  -4   0 49722.9 1060.76   9
  -4  -1   0 49142.0 1036.36   5
   4   1   0 48754.4 1044.83   5
  -5   4   0 49144.6 1071.30   5
  -1   5   0 49747.2 989.034   5
  -1   5   0 48641.9 847.708   1
   4   1   0 47181.0 997.235   2
  -1   5   0 50760.0 848.085   4
  -1   5   0 48994.3 1064.22  10
   5  -4   0 48159.5 1067.29   2
   1  -5   0 47730.9 827.275   4
  -4  -1   0 49696.9 1008.54   2
  -5   4   0 48261.3 1061.99   2
   1  -5   0 50740.4 1070.51  10
   4   1   1 2077.43 176.653   9
  -4  -1   1 2229.25 210.685   2
   1  -5   1 2047.51 169.155   1
   5  -4   1 1907.32 208.276   4
  -5   4   1 1954.80 212.457   4
   5  -4   1 2031.96 231.085   1
   5  -4   1 2319.74 231.740   7
  -1   5   1 1843.42 196.163   6
  -1   5   1 2173.18 223.064   7
   4   1   1 2000.03 200.211   8
   4   1   1 2168.12 203.582   6
   1  -5   1 2081.38 199.350   6
   4   1   1 2231.75 208.971   3
  -4  -1   1 2004.76 201.749   6
  -1   5   1 2010.34 209.858   3
  -1   5   1 2047.61 202.411   5
  -5   4   1 1830.69 202.244   2
   4   1   1 2500.40 230.722   5
  -4  -1   1 2343.75 209.343   5
   1  -5   1 1974.39 207.564  10
  -5   4   1 1633.72 212.251   5
  -1   5   1 1986.26 120.786   9
   4   1   1 2079.57 192.402   2
   1  -5   1 2010.06 125.257   4
  -1   5   1 2156.16 175.160   4
   1  -5   2 13180.1 469.251   1
  -1   5   2 13164.4 527.657   8
  -1   5   2 14290.3 526.709   7
   5  -4   2 13853.1 514.842   7
  -5   4   2 14023.6 547.830   4
   4   1   2 14099.7 510.655   6
   1  -5   2 13623.1 488.249   6
   4   1   2 14027.9 507.809   3
  -4  -1   2 13986.1 477.781   5
   5  -4   2 12218.3 527.924   1
  -4  -1   2 13671.6 532.650   6
  -5   4   2 13171.0 539.040   5
  -1   5   2 12909.6 333.574   2
  -1   5   2 13824.4 477.716   4
   4   1   2 12951.5 462.248   2
   1  -5   2 13591.2 524.399  10
  -5   4   2 13314.7 504.399   2
   1  -5   2 12969.9 297.164   4
   4   1   2 14300.2 444.753   9
  -4  -1   3 786.021 106.532   4
  -1   5   3 646.420 157.395   8
  -4  -1   3 540.350 141.687   6
  -5   4   3 656.255 157.650   4
  -1   5   3 711.740 138.516   4
   4   1   3 542.941 118.636   2
  -1   5   3 750.189 154.257   7
   1  -5   3 809.374 141.522   6
   4   1   3 566.998 124.083   6
   1  -5   3 907.941 164.292   1
  -5   4   3 772.918 145.304   2
   1  -5   3 791.372 152.867  10
   4   1   3 580.455 144.072   3
  -4  -1   3 642.841 116.990   5
   5  -4   3 673.106 146.346   5
  -5   4   3 926.017 182.916   5
   5  -4   3 802.504 150.630   7
   4   1   3 576.262 124.470   1
   1  -5   3 772.618 70.5564   4
   5  -4   3 651.684 162.417   1
  -5   4   4 3768.25 312.016   4
   1  -5   4 4029.10 315.484   1
  -5   4   4 4006.96 196.797   8
  -1   5   4 3260.96 297.208   8
  -4  -1   4 3996.32 325.805   6
   4   1   4 3575.85 239.593   1
   1  -5   4 3588.72 277.622   6
   5  -4   4 2896.90 97.2814   6
   1  -5   4 3957.91 285.640  10
   5  -4   4 3493.34 322.708   1
  -1   5   4 4142.30 319.340   4
  -4  -1   4 3558.38 229.510   5
   5  -4   4 3857.23 267.553   7
  -4  -1   4 3670.96 215.948   4
   1  -5   4 3856.15 163.229   4
   1  -5   5 45.9403 45.1660   4
  -1   5   5 265.561 143.401   8
   1  -5   5 7.39975 112.939   1
   4   1   5 37.0313 44.3572   7
  -1   5   5 38.4848 102.845   4
   5  -4   5 286.345 100.496   7
   5  -4   5-52.0432 117.773   1
   1  -5   5 60.5461 45.3444   4
   4   1   5 150.971 84.0270   1
   5  -4   5 74.9947 50.1909   6
  -4  -1   5 118.784 111.338   6
   1  -5   5 46.9023 97.9650   6
  -5   4   5 181.313 65.4053   8
  -4  -1   5 214.898 74.3758   5
  -4  -1   5 181.749 76.5319   4
  -5   4   5 87.3081 122.282   4
   1  -5   5 86.4195 87.1465  10
   4   1   6 10741.7 449.057   1
  -1   5   6 11148.3 593.278   4
   1  -5   6 11475.5 374.649   4
  -1   5   6 11322.9 575.367   8
   5  -4   6 11282.3 608.077   1
   5  -4   6 11238.4 381.778   6
  -4  -1   6 10711.2 598.375   6
   1  -5   6 10851.0 533.898   6
  -4  -1   6 11653.9 370.139   5
   5  -4   6 11499.9 478.718  10
  -5   4   6 11955.9 611.831   4
   1  -5   6 10954.1 591.942   1
   1  -5   6 10408.2 456.027  10
  -4  -1   6 11171.6 436.393   4
  -1   5   7 121.459 154.786   8
  -4  -1   7-93.4624 103.150   4
  -5   4   7 262.457 160.028   4
   1  -5   7-77.4175 135.650   1
   4   1   7 267.127 153.635   4
  -4  -1   7 18.9594 154.467   6
   1  -5   7-68.2599 130.799   6
   4   1   7 90.4445 93.5882   1
  -1   5   7 297.098 149.518   4
   5  -4   7-207.574 175.909   1
  -5   4   8 2928.81 351.897   4
  -1   5   8 2477.27 335.226   4
   4   1   8 2730.30 355.459   4
   1  -5   8 2825.09 318.574   6
  -4  -1   8 2653.89 353.536   6
   5  -4   8 2399.65 336.717   1
   1  -5   8 3080.02 369.755   1
   1  -5   9-106.293 161.876   6
  -3  -2  -9 1392.99 270.732   3
   5  -3  -8 510.565 155.104   2
   2  -5  -8 652.811 222.492   3
   3   2  -8 635.301 205.741   2
  -3  -2  -8 329.781 224.088   3
  -3  -2  -8 521.706 193.322   5
  -2   5  -7 2297.82 252.346   7
   5  -3  -7 2066.05 255.384   2
   3   2  -7 2236.86 292.888   2
  -3  -2  -7 2496.97 314.337   3
   2  -5  -7 2624.51 333.243   3
  -3  -2  -7 2235.25 293.222   5
  -5   3  -7 2238.61 244.543   5
  -3  -2  -6 2548.54 197.168   9
  -2   5  -6 2509.03 252.597   7
   2  -5  -6 2835.24 233.038  10
  -5   3  -6 2504.64 254.758   5
   3   2  -6 2430.68 289.359   2
  -3  -2  -6 2820.52 300.250   3
   2  -5  -6 2864.37 323.941   3
  -3  -2  -6 2271.60 277.737   5
   5  -3  -6 2728.31 268.138   2
  -5   3  -6 2945.95 194.250   3
  -2   5  -5 7716.53 419.137   7
  -3  -2  -5 8383.27 314.376   9
   3   2  -5 8408.99 480.388   2
   5  -3  -5 8161.12 435.783   2
  -5   3  -5 7627.96 268.873   3
   3   2  -5 7877.38 387.653  10
  -3  -2  -5 7257.93 438.552   3
   2  -5  -5 7796.47 487.349   3
  -2   5  -5 6565.25 157.704   5
  -3  -2  -5 7095.53 449.633   5
  -5   3  -5 8147.20 429.262   5
   2  -5  -5 8327.18 287.681   9
   2  -5  -5 7943.07 388.204  10
   2  -5  -5 7884.38 379.897   7
   2  -5  -5 7627.02 270.986   1
  -3  -2  -5 7784.37 274.353   2
  -5   3  -5 8072.38 472.198   9
   3   2  -4 2634.89 162.242   8
   3   2  -4 3012.88 282.052   2
  -2   5  -4 2259.09 240.853   7
   2  -5  -4 2087.46 205.782   7
   5  -3  -4 2449.54 242.364   2
   2  -5  -4 2556.93 140.966   1
   3   2  -4 2831.20 147.948   4
  -5   3  -4 2777.26 259.001   5
  -2   5  -4 2654.71 148.199   5
   2  -5  -4 2474.84 269.199   3
  -3  -2  -4 2143.30 244.446   5
  -5   3  -4 2746.83 126.230   3
  -3  -2  -4 2621.08 260.687   3
   3   2  -4 2474.16 224.049  10
   2  -5  -4 2439.84 232.059  10
  -5   3  -4 3158.80 295.183   9
   2  -5  -4 2420.57 144.912   9
  -3  -2  -4 2347.17 155.429   2
  -3  -2  -3 17777.0 453.717   2
   3   2  -3 17981.8 362.445   4
  -2   5  -3 18414.3 628.879   7
   3   2  -3 18063.3 451.702   8
   2  -5  -3 18021.8 595.721  10
   2  -5  -3 19147.9 596.427   7
  -2   5  -3 18682.8 535.955   6
  -2   5  -3 17478.2 510.508   3
  -3  -2  -3 18061.5 623.285   3
   2  -5  -3 18457.6 638.292   3
  -3  -2  -3 18926.6 660.288   5
  -5   3  -3 17435.9 612.500   5
   3   2  -3 18130.5 479.884   5
  -2   5  -3 18614.9 459.904   5
   5  -3  -3 18335.1 618.972   2
   3   2  -3 17602.3 625.263   2
   2  -5  -3 17734.4 378.343   1
   3   2  -3 18379.4 601.218  10
   2  -5  -3 18260.2 406.090   1
  -2   5  -3 18432.5 599.464  10
  -5   3  -3 17033.5 632.579   9
   2  -5  -2 7153.65 346.953   4
  -3  -2  -2 6918.83 366.657   8
   3   2  -2 6917.88 280.126   8
  -3  -2  -2 7122.90 287.854   2
   2  -5  -2 6902.01 359.796   7
  -2   5  -2 6973.87 303.440   6
  -2   5  -2 7125.88 377.840   7
   2  -5  -2 7557.91 374.851   3
  -3  -2  -2 7192.31 383.612   5
  -2   5  -2 6771.67 301.635   3
  -5   3  -2 7961.45 402.667   5
   2  -5  -2 7313.59 248.831   1
   3   2  -2 7539.15 322.945   5
  -5   3  -2 7065.21 388.074   9
  -2   5  -2 7235.07 365.155   1
   3   2  -2 7129.18 365.867  10
   3   2  -2 6846.40 364.806   2
   5  -3  -2 8087.73 400.916   2
  -2   5  -2 6713.35 356.891  10
   2  -5  -2 7205.87 366.690  10
  -3  -2  -2 6880.31 368.604   3
   3   2  -2 8038.77 366.777   1
   5  -3  -2 7290.33 374.236   4
   3   2  -2 7160.67 213.703   4
   3   2  -1 9716.58 406.261   2
   2  -5  -1 10270.9 380.294   4
  -2   5  -1 9745.60 436.711   7
  -3  -2  -1 9920.58 407.050   8
   3   2  -1 9488.46 351.726   8
   2  -5  -1 9765.37 422.632   7
  -2   5  -1 10328.3 442.427  10
   2  -5  -1 9883.24 431.475  10
   3   2  -1 10031.3 437.253   6
   3   2  -1 9056.13 362.598   1
  -2   5  -1 10189.5 363.585   6
   2  -5  -1 9874.59 398.350   3
  -2   5  -1 9931.54 366.322   3
   2  -5  -1 9460.41 308.148   1
  -3  -2  -1 9954.20 429.517   5
   3   2  -1 9130.61 419.461   3
   3   2  -1 9861.19 391.080   5
  -5   3  -1 9492.50 434.393   5
   5  -3  -1 9720.73 430.306   9
   5  -3  -1 9614.10 423.004   4
  -2   5  -1 9690.87 388.090   1
  -5   3  -1 9522.20 444.809   2
  -2   5  -1 10032.7 333.511   4
  -3  -2  -1 10032.4 364.907   2
   5  -3  -1 9695.53 435.102   2
   3   2  -1 9860.29 283.522   4
   3   2  -1 9843.63 433.624  10
   2  -5   0 2013.77 159.366   4
   3   2   0 2357.64 190.656   8
  -2   5   0 2026.66 214.802   7
  -5   3   0 2352.80 127.168   6
   3   2   0 2276.80 214.284   6
   2  -5   0 2203.09 183.459   3
   3   2   0 1932.39 192.786   3
  -2   5   0 1784.86 163.632   6
  -3  -2   0 2159.02 211.633   6
  -5   3   0 2122.99 213.354   2
   2  -5   0 2426.69 175.684   1
  -2   5   0 2199.98 187.250   3
  -3  -2   0 2112.06 188.326   5
  -2   5   0 1912.93 158.177   4
   3   2   0 2144.77 196.153   5
  -5   3   0 2295.22 223.694   5
   2  -5   0 2131.60 210.769   7
   5  -3   0 2143.54 225.445   2
   3   2   0 2083.71 160.627   1
  -2   5   0 2181.61 168.393   9
  -2   5   0 1981.13 199.229  10
  -5   3   0 2082.71 206.076   4
   2  -5   0 2227.70 213.889  10
  -3  -2   0 2155.26 181.549   2
   5  -3   0 2180.15 205.986   4
   3   2   0 1982.37 198.663  10
   3   2   0 1882.40 176.025   2
   5  -3   0 2421.06 217.825   9
  -2   5   1 11610.4 340.791   9
   3   2   1 11051.4 435.148   8
  -2   5   1 10798.8 460.013   7
   2  -5   1 11484.2 408.500   1
  -5   3   1 11244.4 346.600   6
   3   2   1 11546.7 459.211   6
  -5   3   1 10477.9 448.267   2
   5  -3   1 10803.2 238.042   3
  -2   5   1 10511.4 412.776   6
   3   2   1 10756.9 446.582   3
  -2   5   1 11760.7 443.771   3
  -3  -2   1 10728.3 402.964   5
   2  -5   1 10574.6 449.905   7
   3   2   1 10817.8 454.203   5
  -3  -2   1 10971.3 460.276   6
  -5   3   1 11063.0 467.479   5
   5  -3   1 10387.4 454.315   5
   3   2   1 10977.2 454.821  10
  -3  -2   1 10987.2 430.428   2
  -2   5   1 11002.0 402.771   4
  -2   5   1 11378.1 373.031   2
   2  -5   1 10906.7 350.027   4
   5  -3   1 11111.5 474.775   2
  -2   5   1 10765.3 458.426  10
  -5   3   1 11178.8 460.365   4
   2  -5   1 10328.5 445.488  10
   5  -3   1 10330.5 447.376   4
   3   2   1 10637.7 382.432   2
  -2   5   2 6183.39 338.588   8
  -2   5   2 6233.39 326.381   4
  -5   3   2 6672.80 360.893   4
   2  -5   2 6733.55 361.393   7
  -3  -2   2 6389.97 352.139   2
   2  -5   2 6291.84 255.339   4
   3   2   2 6604.02 358.207   6
  -2   5   2 5901.80 344.740   7
   2  -5   2 7151.00 349.966   1
   2  -5   2 6365.00 352.068  10
  -3  -2   2 6788.23 299.740   5
  -5   3   2 6266.68 302.519   6
  -3  -2   2 6925.54 379.100   6
   2  -5   2 6508.84 297.232   6
   3   2   2 6393.16 354.935   3
   3   2   2 6195.03 245.091   9
  -2   5   2 6698.03 363.744  10
  -2   5   2 6274.49 357.260   3
  -5   3   2 6572.94 368.835   5
   5  -3   2 6749.44 366.337   5
   5  -3   2 7124.54 394.712   1
  -2   5   2 6443.71 247.191   2
   3   2   2 6766.67 368.511   8
   3   2   2 6938.34 290.322   2
   3   2   2 6642.38 356.539  10
  -5   3   2 6553.02 354.512   2
  -2   5   3 18540.0 611.402   8
  -3  -2   3 18912.0 656.243   6
   2  -5   3 18236.8 619.631   1
  -2   5   3 18916.0 615.747  10
   5  -3   3 17919.4 554.215   7
   2  -5   3 18587.4 464.471   4
  -2   5   3 18340.0 369.934   2
   5  -3   3 17532.9 309.298   6
  -3  -2   3 18652.6 482.473   5
   3   2   3 18340.3 438.618   1
   5  -3   3 18686.7 660.159   1
   5  -3   3 17823.4 617.246   5
  -5   3   3 18228.7 626.319   5
   3   2   3 19424.0 665.132   8
   3   2   3 18091.0 469.203   2
   3   2   3 18525.5 605.275  10
   2  -5   3 19146.2 537.137   6
   2  -5   3 19164.9 611.828  10
  -5   3   3 17997.3 622.483   4
  -2   5   3 18655.5 618.833   4
  -2   5   4 2727.15 254.708   8
  -3  -2   4 2541.60 141.166   4
   3   2   4 2449.08 171.083   7
   5  -3   4 2589.79 202.552   7
   2  -5   4 2650.96 214.838   6
   5  -3   4 2536.96 271.102   1
  -3  -2   4 2519.55 159.011   5
   3   2   4 2619.85 282.560   8
  -5   3   4 2465.45 255.668   5
   2  -5   4 2518.15 177.365   4
  -3  -2   4 3204.34 301.068   6
  -2   5   4 2145.73 79.3495   2
   2  -5   4 2520.95 258.351   1
  -2   5   4 2406.95 254.051   4
   5  -3   4 2570.10 138.322   6
   3   2   4 2400.04 162.424   1
   2  -5   4 2556.75 230.601  10
   3   2   4 2954.86 241.183  10
  -5   3   4 2851.49 264.391   4
   5  -3   5 7148.78 451.390   1
  -2   5   5 7060.15 411.478   8
   2  -5   5 6786.02 436.108   1
   5  -3   5 7012.82 310.855   7
   3   2   5 7340.42 238.878   7
  -5   3   5 7277.18 430.726   4
  -3  -2   5 7336.50 463.437   6
   3   2   5 6721.43 428.367   4
   2  -5   5 7056.13 372.743   6
  -3  -2   5 6875.90 223.950   5
   2  -5   5 7321.75 324.151   4
  -5   3   5 7025.22 412.611   5
   3   2   5 6869.33 281.444   1
   3   2   5 5807.64 335.682  10
   2  -5   5 7428.76 370.089  10
  -3  -2   5 7382.55 271.999   4
  -2   5   5 6816.62 435.900   4
  -2   5   6 2734.62 274.562   8
   5  -3   6 3027.75 320.417   1
   3   2   6 2779.20 308.334   4
   2  -5   6 3252.54 276.047   6
  -3  -2   6 3388.84 208.451   4
   2  -5   6 2721.55 302.012   1
   2  -5   6 3203.29 246.854  10
  -5   3   6 3092.70 285.256   5
   3   2   6 2810.47 197.198   1
   2  -5   6 2858.45 226.335   4
  -3  -2   6 3348.32 338.191   6
  -5   3   6 3352.99 318.806   4
  -2   5   6 3498.11 342.780   4
   2  -5   7 2891.55 245.605   4
   5  -3   7 2517.10 212.796  10
  -2   5   7 2718.81 292.872   8
  -5   3   7 2451.58 300.133   4
  -2   5   7 2484.72 319.244   4
   2  -5   7 2556.74 212.088  10
   3   2   7 2627.62 316.605   4
   2  -5   7 3014.30 287.807   6
   2  -5   7 2389.00 307.725   1
  -3  -2   7 2597.49 325.794   6
  -5   3   7 2959.77 294.983   5
   5  -3   7 2838.31 319.572   1
  -5   3   8 396.438 174.704   4
   3   2   8 383.270 178.825   4
   2  -5   8 663.162 210.945   1
  -2   5   8 305.734 158.520   4
  -3  -2   8 612.559 210.860   6
   2  -5   8 672.218 169.948   6
  -5   3   8 592.966 169.089   5
   5  -3   8 453.700 172.414   1
   5  -3   9 1394.95 261.062   1
  -5   3   9 1901.88 307.533   4
   5  -2  -9 1509.35 261.833   2
   2   3  -8 414.982 144.526   7
   5  -2  -8 435.485 179.724   2
   2   3  -8 480.515 193.043   2
  -2  -3  -8 756.073 215.648   3
   3  -5  -8 684.502 218.246   3
  -5   2  -8 235.171 137.785   5
  -5   2  -7 2744.19 308.663   9
  -3   5  -7 2623.86 253.050   7
  -5   2  -7 2642.92 235.739   3
   5  -2  -7 3123.14 321.021   2
  -5   2  -7 2851.06 288.803   5
   2   3  -7 2581.08 326.047   2
  -2  -3  -7 3089.33 349.385   3
   3  -5  -7 2399.40 322.603   3
  -5   2  -6 2682.24 287.958   9
   2   3  -6 3086.84 322.471   2
  -3   5  -6 3075.74 272.331   7
   3  -5  -6 2546.94 209.076   1
  -5   2  -6 3098.46 231.227   3
  -2  -3  -6 3220.27 322.999   5
   3  -5  -6 3246.23 347.026   3
  -5   2  -6 3274.01 301.230   5
  -2  -3  -6 3073.96 321.401   3
  -2  -3  -6 2306.70 141.325   9
   3  -5  -6 2891.03 163.741   2
   3  -5  -6 2834.67 235.155  10
   5  -2  -6 3334.52 315.157   2
   2   3  -5 7150.82 447.200   2
  -3   5  -5 6557.19 378.453   7
  -5   2  -5 7399.54 320.454   3
  -2  -3  -5 7424.05 455.718   3
  -2  -3  -5 6926.73 447.713   5
   3  -5  -5 6643.62 443.865   3
  -5   2  -5 7112.20 417.205   5
  -3   5  -5 7645.27 279.193   5
   3  -5  -5 7155.88 260.589   2
   2   3  -5 6135.69 344.415  10
   3  -5  -5 7079.14 317.665   1
   5  -2  -5 7826.00 446.271   2
  -5   2  -5 7184.05 428.481   9
   3  -5  -5 7473.36 376.478  10
   3  -5  -4 2659.07 194.995   9
  -3   5  -4 2641.90 179.212   3
  -5   2  -4 2823.40 270.309   9
   5  -2  -4 2520.23 250.030   2
  -3   5  -4 2440.92 243.440   7
   3  -5  -4 2676.40 273.905   3
  -2  -3  -4 2530.52 261.149   5
  -5   2  -4 2504.70 253.104   5
  -2  -3  -4 2354.40 269.205   3
  -3   5  -4 2540.13 184.024   5
   2   3  -4 2241.74 249.464   2
   2   3  -4 2588.29 126.482   5
   3  -5  -4 2788.57 190.186   1
   3  -5  -4 2506.44 227.371  10
   2   3  -4 2181.72 212.406  10
  -5   2  -4 2586.47 169.798   3
  -5   2  -3 18851.3 641.316   9
  -2  -3  -3 18298.7 376.632   2
   3  -5  -3 19005.8 618.312   7
   2   3  -3 19263.8 643.726   2
  -3   5  -3 17973.3 616.315   7
  -3   5  -3 18650.2 450.807   3
  -2  -3  -3 18773.2 657.475   3
   3  -5  -3 17458.3 607.889   3
  -2  -3  -3 19464.8 664.304   5
  -5   2  -3 18636.7 643.629   5
   2   3  -3 18225.6 442.003   5
  -3   5  -3 18620.2 508.176   5
   3  -5  -3 17952.4 596.658  10
   2   3  -3 18839.4 604.497  10
   5  -2  -3 17968.3 630.867   2
   5  -2  -3 19436.0 617.658   4
   3  -5  -3 17967.1 486.664   9
   3  -5  -2 6560.13 346.411   4
   2   3  -2 6471.94 303.527   8
   2   3  -2 6506.44 349.486   2
   5  -2  -2 6497.87 341.184   4
   2   3  -2 7157.56 336.190   1
   5  -2  -2 6210.27 363.365   2
  -2  -3  -2 7044.28 251.518   2
   3  -5  -2 6833.87 367.163   7
  -3   5  -2 6587.00 249.098   6
  -3   5  -2 6698.94 252.246   3
  -2  -3  -2 6822.53 376.607   3
   3  -5  -2 6622.24 339.390   3
  -5   2  -2 6968.76 379.538   2
  -2  -3  -2 5993.50 349.223   5
   2   3  -2 6346.28 344.055  10
  -3   5  -2 7041.62 379.133   7
  -5   2  -2 5844.43 355.145   5
   2   3  -2 6896.31 286.244   5
  -3   5  -2 6684.51 309.496   5
  -3   5  -2 7024.76 374.583   1
  -5   2  -2 6446.56 365.376   9
   3  -5  -2 6916.18 363.957  10
   2   3  -1 10574.8 372.469   1
   2   3  -1 9907.82 401.482   2
   2   3  -1 10018.9 222.537   4
   3  -5  -1 11227.0 463.354   7
  -2  -3  -1 10479.6 347.682   2
  -3   5  -1 11151.8 470.738   7
   5  -2  -1 11661.3 476.211   2
  -3   5  -1 10725.6 321.758   6
  -5   2  -1 10634.3 301.866   6
   3  -5  -1 10817.4 387.959   3
  -2  -3  -1 10756.3 455.009   3
  -3   5  -1 11126.4 338.567   3
  -2  -3  -1 10517.5 432.310   5
   2   3  -1 10602.4 449.215   3
   2   3  -1 10795.6 393.352   5
  -5   2  -1 10797.1 471.818   5
   2   3  -1 10853.8 399.929   8
   5  -2  -1 10762.3 458.102   5
   3  -5  -1 11260.3 386.732   1
  -5   2  -1 10905.7 459.520   2
   5  -2  -1 11242.7 445.012   4
   3  -5  -1 9894.92 436.344  10
  -3   5  -1 10971.4 393.301   4
   2   3  -1 10703.5 225.566   4
   2   3  -1 10001.6 433.819  10
   2   3  -1 10516.7 450.048   6
   3  -5  -1 10479.4 416.053   4
   5  -2   0 2059.01 207.733   9
   2   3   0 2129.54 175.877   2
   2   3   0 1934.45 188.888   8
   2   3   0 2153.66 133.979   4
  -3   5   0 2152.40 154.261   6
   3  -5   0 2446.76 219.212   7
  -2  -3   0 2291.24 224.752   6
  -3   5   0 1949.14 213.505   7
  -5   2   0 2157.33 150.974   6
   3  -5   0 2312.07 166.245   3
   2   3   0 2069.73 207.301   3
   2   3   0 1710.98 192.816   6
  -3   5   0 2241.11 171.665   3
  -2  -3   0 1969.81 182.720   5
   2   3   0 1949.95 185.804   5
   3  -5   0 2371.31 196.633   1
  -5   2   0 2172.36 214.453   5
   5  -2   0 2331.68 224.499   5
   3  -5   0 2473.47 195.117   4
   3  -5   0 2332.59 218.726  10
  -3   5   0 2245.08 195.778   2
   5  -2   0 2179.29 217.837   2
  -5   2   0 2397.62 220.108   2
  -3   5   0 2255.30 187.525   4
   5  -2   0 2146.96 202.591   4
   2   3   0 2040.29 198.220  10
   2   3   0 2385.08 155.273   1
  -3   5   0 2223.52 185.032   9
  -5   2   1 9634.68 430.380   2
   2   3   1 10515.4 430.677   8
   2   3   1 9753.33 337.828   4
   3  -5   1 9694.20 369.683   4
   3  -5   1 9498.45 424.358   7
   5  -2   1 10127.2 300.624   6
   2   3   1 10159.8 271.909   1
   2   3   1 9013.21 416.764   6
  -2  -3   1 9982.36 439.734   6
   5  -2   1 10261.2 302.495   3
  -5   2   1 9899.80 425.274   4
  -3   5   1 10002.2 404.435   4
   2   3   1 10082.0 442.281   3
   3  -5   1 10297.9 416.411   1
  -2  -3   1 10536.9 379.728   5
   2   3   1 9975.83 424.337   5
  -5   2   1 9172.98 421.212   5
   5  -2   1 9538.22 438.628   5
   5  -2   1 10141.5 444.627   2
  -3   5   1 9622.78 372.436   2
   3  -5   1 10058.1 438.398  10
   5  -2   1 10176.7 440.031   4
  -5   2   1 9754.62 350.706   6
   2   3   1 9855.84 427.696  10
   2   3   1 9513.07 331.163   2
   5  -2   1 10496.7 439.124   9
   2   3   2 6746.99 369.978   8
  -5   2   2 6679.36 201.507   8
   2   3   2 6867.16 322.226   4
   3  -5   2 7344.67 264.211   6
   3  -5   2 6305.80 355.568   7
  -5   2   2 6970.80 332.078   6
   3  -5   2 7594.15 381.357   1
   2   3   2 7229.69 328.800   7
   5  -2   2 7359.79 246.969   3
   3  -5   2 7036.10 311.551   4
  -2  -3   2 6905.49 282.697   5
   3  -5   2 7259.09 373.699  10
   2   3   2 7241.53 182.539   1
  -5   2   2 7339.64 374.690   5
  -2  -3   2 7028.31 378.740   6
   5  -2   2 7033.59 379.303   2
  -2  -3   2 7202.19 338.699   1
   2   3   2 6873.16 191.329   1
   5  -2   2 6530.84 370.827   1
  -3   5   2 7142.84 294.161   2
   2   3   2 6994.63 255.901   2
   5  -2   2 6791.38 239.150   6
   2   3   2 6873.38 358.306  10
  -5   2   2 7145.66 360.193   4
  -3   5   2 6918.79 359.099   4
  -3   5   3 17153.0 560.387   8
   2   3   3 19121.9 656.395   8
   2   3   3 18662.6 598.444   4
   3  -5   3 17743.8 598.864   7
   2   3   3 19018.6 523.198   7
   2   3   3 16218.4 259.543   1
  -5   2   3 17399.2 580.514   6
   3  -5   3 17625.6 622.173   1
   2   3   3 18022.3 589.694  10
  -2  -3   3 18826.6 652.753   6
   5  -2   3 18088.7 426.556   6
   3  -5   3 17701.0 450.606   6
   5  -2   3 17649.5 425.462   3
  -2  -3   3 18119.9 420.063   5
  -5   2   3 17897.9 600.751   5
   5  -2   3 17086.6 615.502   1
   3  -5   3 17679.9 590.467  10
   2   3   3 17511.8 373.179   2
   2   3   3 16402.4 257.110   1
  -2  -3   3 18871.1 597.989   1
   3  -5   3 17740.7 520.025   4
  -5   2   3 17816.2 592.247   4
  -3   5   3 17545.3 443.552   2
  -3   5   3 18013.4 623.973   4
  -3   5   4 2608.48 158.903   2
  -3   5   4 2544.39 232.981   8
   2   3   4 2863.14 263.827   4
   3  -5   4 2382.68 259.455   1
   2   3   4 2593.52 287.913   8
   2   3   4 2577.73 188.980   7
   2   3   4 2455.69 90.7636   1
   5  -2   4 2425.87 191.769   7
   3  -5   4 2472.96 182.039   6
   5  -2   4 2587.48 178.606   6
  -5   2   4 2366.64 254.137   6
  -2  -3   4 2721.78 277.439   6
  -2  -3   4 2317.02 115.036   5
   5  -2   4 2698.95 263.977   1
  -5   2   4 2690.88 244.710   5
  -2  -3   4 2612.44 259.597   1
   2   3   4 2479.45 225.400  10
   3  -5   4 2607.41 233.582  10
   3  -5   4 2734.15 217.979   4
  -5   2   4 2255.29 236.835   4
  -3   5   4 2920.54 274.011   4
  -3   5   5 7466.68 395.880   8
   2   3   5 8068.34 481.805   8
  -5   2   5 8187.48 439.053   4
  -3   5   5 8090.89 268.743   2
   2   3   5 7889.69 281.774   7
   3  -5   5 7869.59 471.474   1
   5  -2   5 8114.56 299.198   7
  -3   5   5 7785.52 464.629   4
  -5   2   5 7874.29 461.776   6
  -2  -3   5 8213.19 477.214   6
   5  -2   5 7246.98 433.966   1
   2   3   5 8427.50 470.142   4
  -5   2   5 8418.16 426.343   5
   3  -5   5 8006.63 352.930   6
  -2  -3   5 7140.44 434.930   1
   3  -5   5 7880.50 385.607   4
   2   3   5 7698.26 212.616   1
   3  -5   5 7503.00 376.928  10
   2   3   5 6952.98 369.325  10
  -2  -3   5 7293.53 204.231   4
  -2  -3   6 2749.91 156.538   4
  -3   5   6 2859.24 264.315   8
   2   3   6 3034.49 309.596   4
   5  -2   6 2611.86 286.192   1
   3  -5   6 2749.23 234.818   6
  -2  -3   6 2799.23 306.514   6
   3  -5   6 2627.05 299.013   1
  -5   2   6 2997.79 271.376   5
  -2  -3   6 2856.04 304.206   1
  -5   2   6 3027.82 298.716   4
   3  -5   6 2767.18 229.025  10
  -3   5   6 2890.78 304.700   4
  -3   5   7 2096.64 239.805   8
  -5   2   7 2400.76 277.942   4
  -3   5   7 2388.18 316.691   4
   5  -2   7 2511.63 288.166   1
   3  -5   7 2421.81 243.089   6
  -2  -3   7 2366.95 309.695   1
  -2  -3   7 2722.56 328.535   6
   3  -5   7 2428.70 312.977   1
   2   3   7 2684.32 321.686   4
  -5   2   7 2309.24 242.899   5
   3  -5   7 2044.71 184.600  10
  -5   2   8 454.357 191.317   4
  -3   5   8 694.389 196.547   4
   2   3   8 458.496 186.428   4
   3  -5   8 725.014 154.921   4
  -5   2   8 704.034 212.880   6
   3  -5   8 420.396 175.999   1
  -2  -3   8 688.306 211.577   6
  -2  -3   8 539.514 187.516   1
   5  -2   8 495.256 170.560   1
  -5   2   9 1580.82 269.309   4
   5  -2   9 1729.11 276.996   1
  -5   1  -9-63.1532 130.543   9
   5  -1  -9-55.8393 149.454   2
   1   4  -8 2210.72 269.648   7
   5  -1  -8 2536.73 341.551   2
  -1  -4  -8 2916.78 371.074   3
   1   4  -8 2420.77 334.135   2
  -5   1  -8 2633.21 304.511   5
   4  -5  -8 2677.19 361.537   3
  -5   1  -8 3145.48 332.274   9
  -5   1  -7 62.8915 115.223   9
   1   4  -7 13.8480 119.352   7
   5  -1  -7-209.759 170.222   2
  -5   1  -7-52.3370 97.3791   3
  -1  -4  -7-67.3981 152.934   3
   1   4  -7 88.0801 115.159   2
   4  -5  -7-133.460 169.656   3
  -5   1  -7-86.1728 128.654   5
  -5   1  -6 10891.4 536.944   9
   1   4  -6 11060.5 603.083   2
   1   4  -6 11136.0 549.355   7
  -5   1  -6 11234.6 484.177   3
  -1  -4  -6 11685.4 624.691   3
   4  -5  -6 11199.2 620.773   3
  -5   1  -6 10337.1 557.172   5
  -4   5  -6 11636.8 410.997   5
   5  -1  -6 13070.1 625.773   2
   4  -5  -6 11244.7 427.867   2
   4  -5  -6 10902.2 467.694  10
   4  -5  -5 106.172 87.3794   1
   1   4  -5 29.3350 98.1577   7
   4  -5  -5 57.0955 74.2395   2
   4  -5  -5 270.999 112.407  10
   5  -1  -5-6.28176 111.253   2
  -5   1  -5 96.7978 97.9343   9
  -5   1  -5 42.5099 76.7708   3
  -1  -4  -5 55.4326 129.628   3
   1   4  -5 48.4729 96.0357   2
   4  -5  -5 124.883 136.914   3
  -5   1  -5-10.0644 113.056   5
  -4   5  -5 178.975 85.1912   5
  -5   1  -4 3667.79 292.044   9
   5  -1  -4 3716.02 266.971   4
   4  -5  -4 3662.72 258.152   9
   5  -1  -4 4085.73 330.026   2
   1   4  -4 3964.60 320.620   2
   1   4  -4 4447.55 336.244   7
  -5   1  -4 3965.00 252.337   3
  -4   5  -4 3844.98 158.633   3
  -1  -4  -4 3508.41 317.365   3
   4  -5  -4 3741.17 327.804   3
  -5   1  -4 4262.46 337.309   5
  -4   5  -4 4049.41 258.581   5
   1   4  -4 3413.53 105.932   5
   4  -5  -4 3744.26 255.174   1
   4  -5  -4 3679.36 244.687   2
   4  -5  -4 4016.08 292.928  10
   4  -5  -3 646.744 123.928   9
   4  -5  -3 644.168 126.965   2
   1   4  -3 470.991 146.523   7
  -5   1  -3 573.602 142.916   2
   5  -1  -3 625.913 158.898   2
  -1  -4  -3 626.235 167.532   3
   1   4  -3 590.523 144.894   2
  -1  -4  -3 626.544 157.459   5
   4  -5  -3 675.954 154.271   3
   5  -1  -3 727.686 136.098   4
  -5   1  -3 606.783 146.235   5
   1   4  -3 779.820 95.3816   5
  -4   5  -3 844.398 140.862   5
   4  -5  -3 916.947 175.136  10
  -1  -4  -3 650.730 140.258  10
  -5   1  -2 13414.3 519.410   8
   1   4  -2 13979.5 543.430   7
   1   4  -2 13606.1 475.608   1
   5  -1  -2 13464.4 481.409   4
   1   4  -2 13998.7 515.842   2
  -1  -4  -2 13356.5 533.084   5
   4  -5  -2 12875.9 469.393   3
   5  -1  -2 13193.2 537.047   2
   1   4  -2 14199.8 416.034   5
  -5   1  -2 13187.0 545.380   5
  -1  -4  -2 13827.8 553.706   3
  -1  -4  -2 13501.1 519.439  10
  -4   5  -2 14013.1 494.320   5
   5  -1  -2 13628.8 516.548   5
   4  -5  -2 14094.0 533.925  10
  -5   1  -2 13575.5 519.833   2
  -4   5  -2 13558.4 543.681   9
   4  -5  -2 12740.3 457.861   9
  -4   5  -1 1934.98 192.813   4
   1   4  -1 1989.19 207.993  10
   1   4  -1 2119.79 191.282   2
   4  -5  -1 2195.01 225.219  10
   1   4  -1 2252.12 173.628   1
   1   4  -1 2072.85 221.225   7
  -4   5  -1 2050.82 221.055   2
   4  -5  -1 2037.30 201.227   4
  -5   1  -1 1603.83 176.234   8
  -4   5  -1 1984.57 104.379   6
   1   4  -1 2052.27 210.259   6
  -1  -4  -1 2101.45 218.575   3
   1   4  -1 1994.72 210.323   3
  -5   1  -1 1812.22 158.514   6
   5  -1  -1 1703.95 203.346   2
  -5   1  -1 1661.80 192.701   2
   4  -5  -1 1806.49 161.355   3
  -1  -4  -1 2394.31 217.188   5
  -4   5  -1 1978.57 213.947   9
   5  -1  -1 1910.54 187.571   4
   1   4  -1 2227.70 180.874   5
   5  -1  -1 2093.58 213.502   5
  -1  -4  -1 2179.75 221.734  10
  -5   1  -1 2108.49 227.521   5
  -4   5  -1 1963.61 203.374   5
   4  -5  -1 2147.61 201.226   1
   1   4  -1 1905.65 69.1653   4
  -4   5   0 49421.1 1014.64   9
   5  -1   0 50157.5 1046.03   9
   1   4   0 49598.9 753.820   4
  -5   1   0 50431.2 911.415   8
   1   4   0 48981.1 907.593   2
   4  -5   0 48575.8 1065.86  10
   1   4   0 50510.3 1051.50   7
   4  -5   0 48573.0 1071.96   7
   1   4   0 48460.7 794.382   1
   5  -1   0 49271.4 930.239   6
   1   4   0 47590.6 1043.70   6
  -5   1   0 49845.2 920.167   6
  -4   5   0 48840.1 771.852   6
  -1  -4   0 48693.3 1058.82   6
   1   4   0 49786.5 1064.20   3
   4  -5   0 50395.5 797.025   3
  -1  -4   0 48430.1 972.497   5
   1   4   0 49053.4 989.074   5
  -5   1   0 49235.4 1070.76   5
   5  -1   0 50327.9 1083.41   5
   4  -5   0 47413.6 1006.23   1
   1   4   0 50594.6 1032.77   8
  -4   5   0 47667.6 1021.31   2
   5  -1   0 47941.4 919.248   3
   5  -1   0 48553.3 1059.04   2
  -4   5   0 49332.4 1014.47   4
   1   4   0 47888.2 1051.70  10
   5  -1   0 50380.0 1018.61   4
  -1  -4   0 49669.6 1061.93  10
   4  -5   0 49111.6 1015.34   4
  -5   1   0 48422.1 1046.23   2
   5  -1   1 1962.94 201.767   9
   1   4   1 2349.05 166.240   4
   1   4   1 2346.87 222.668   8
  -5   1   1 1939.03 138.969   8
   5  -1   1 2093.42 208.221   4
   1   4   1 2181.10 210.786   7
   4  -5   1 2049.58 212.570   1
   4  -5   1 1781.27 210.724  10
   4  -5   1 1888.89 207.113   7
   5  -1   1 1857.31 207.465   2
   5  -1   1 1697.00 153.863   6
   1   4   1 2096.86 105.146   1
   5  -1   1 2048.28 168.314   3
  -1  -4   1 2063.31 221.182   6
  -1  -4   1 2337.30 184.372   5
   1   4   1 2405.88 217.475   5
  -1  -4   1 2030.74 217.665  10
  -5   1   1 1929.03 185.241   6
  -5   1   1 1974.15 204.928   5
  -1  -4   1 1935.39 158.228   1
  -4   5   1 2186.14 200.813   2
   1   4   1 2093.86 152.711   2
  -4   5   1 2085.55 205.438   4
   4  -5   1 2146.44 198.795   4
  -5   1   2 12403.2 269.829   8
   1   4   2 12723.0 440.820   4
   1   4   2 12803.5 518.550   8
   1   4   2 12717.5 468.606   7
   4  -5   2 12453.6 503.570   7
  -5   1   2 12411.7 474.798   6
   5  -1   2 12240.7 401.724   6
  -1  -4   2 13007.9 518.482   6
   5  -1   2 12978.0 411.769   3
   4  -5   2 12660.0 472.846   4
   4  -5   2 11578.8 497.584   1
  -5   1   2 12560.7 496.086   5
   5  -1   2 12059.3 490.935   2
  -1  -4   2 13227.0 455.564   1
   5  -1   2 11160.1 472.326   1
  -5   1   2 13223.6 477.368   4
  -4   5   2 12535.0 442.455   2
  -1  -4   2 13022.6 511.100  10
   4  -5   2 12054.0 497.813  10
  -4   5   2 12948.9 513.845   4
   1   4   2 13208.9 321.111   2
  -1  -4   3 643.077 140.105   1
  -4   5   3 874.260 139.526   8
  -5   1   3 863.577 145.750   4
   4  -5   3 838.726 144.634   4
   4  -5   3 586.028 164.531   1
  -4   5   3 789.438 156.577   4
   1   4   3 846.649 137.837   7
   1   4   3 730.489 137.973   4
   4  -5   3 691.523 67.0645   6
  -5   1   3 857.584 156.660   6
   5  -1   3 973.950 173.405   2
  -1  -4   3 864.224 171.576   6
   5  -1   3 714.558 117.447   6
  -4   5   3 657.008 117.419   2
   4  -5   3 656.176 145.029  10
   5  -1   3 958.079 135.769   3
  -5   1   3 778.459 148.206   5
   1   4   3 637.999 170.433   8
   5  -1   3 572.388 147.582   1
  -4   5   4 4094.99 246.433   2
   1   4   4 4695.06 329.895   4
  -4   5   4 4821.12 284.793   8
   1   4   4 4063.19 341.680   8
  -4   5   4 4089.48 335.647   4
   1   4   4 4520.49 269.006   7
  -5   1   4 5031.04 352.204   6
   4  -5   4 4463.53 354.166   1
  -1  -4   4 5025.09 359.363   6
   4  -5   4 4953.57 200.461   6
   5  -1   4 4265.34 265.772   6
   5  -1   4 4381.63 273.976   3
   5  -1   4 4661.39 328.379   1
  -5   1   4 4164.73 291.819   5
   4  -5   4 4447.63 306.579  10
  -1  -4   4 4411.42 324.531   1
  -5   1   4 4606.88 306.383   4
  -1  -4   5 124.254 119.805   1
   1   4   5 105.614 123.855   8
  -5   1   5 21.8492 98.8840   4
  -4   5   5-65.9893 107.191   4
  -4   5   5 46.8434 80.6989   8
   1   4   5 144.062 97.9752   4
   5  -1   5 50.6094 56.2106   7
   1   4   5 30.6750 74.8672   7
  -5   1   5-23.4040 115.268   6
  -1  -4   5 51.9510 97.4036   6
   4  -5   5 81.1171 66.6077   6
   5  -1   5 20.3235 102.290   1
   5  -1   5-39.4399 88.2046   6
  -4   5   5 69.2674 64.1111   2
  -5   1   5 13.0381 91.3512   5
   4  -5   5 70.3114 84.7857  10
   4  -5   5-93.4683 141.708   1
   1   4   6 11111.6 593.040   4
  -4   5   6 10364.7 454.362   8
   1   4   6 11695.2 612.022   8
   4  -5   6 11198.0 610.753   1
  -1  -4   6 11135.7 591.977   1
  -4   5   6 11637.2 611.662   4
  -5   1   6 11490.5 613.381   6
   5  -1   6 10149.4 520.001   1
   4  -5   6 11408.4 416.974   6
  -1  -4   6 11093.9 585.572   6
  -5   1   6 10863.7 517.300   4
   4  -5   6 10806.9 460.457  10
  -5   1   6 11480.1 481.773   5
   1   4   7 46.7588 146.967   8
  -5   1   7-106.105 127.832   4
  -4   5   7-40.1746 148.412   4
  -4   5   7 142.484 114.280   8
   1   4   7 341.916 156.542   4
  -1  -4   7 29.6749 123.694   1
  -5   1   7 283.172 162.614   6
  -1  -4   7-107.489 167.504   6
   4  -5   7 249.756 166.394   1
  -5   1   7-125.444 107.357   5
   5  -1   7 36.1141 107.101   1
  -1  -4   8 2709.11 344.011   1
  -5   1   8 2756.68 297.709   4
  -4   5   8 2155.99 310.788   4
   1   4   8 2789.23 351.350   4
  -5   1   8 3011.06 378.878   6
  -1  -4   8 2517.80 333.015   6
   4  -5   8 2703.31 347.833   1
   5  -1   8 1955.93 268.144   1
   4  -5   9-186.258 155.230   4
  -5   0  -9 478.176 195.446   5
   0   5  -8 418.762 131.533   7
   5   0  -8 255.996 165.117   2
  -5   0  -8 108.364 124.294   3
   0  -5  -8 772.568 233.224   3
   0   5  -8 284.901 173.488   2
  -5   0  -8 375.897 178.717   5
   5  -5  -8 398.961 190.977   3
   0   5  -7 4341.35 419.612   2
   0   5  -7 3501.40 333.912   7
  -5   0  -7 4279.96 352.143   3
  -5   0  -7 4220.43 389.825   5
   5  -5  -7 4490.26 436.274   3
   0  -5  -7 3706.65 405.696   3
   5   0  -7 4290.83 410.899   2
  -5   0  -7 3765.37 323.188   9
  -5   0  -6 4084.54 321.479   9
   5  -5  -6 3838.99 301.480  10
   0   5  -6 4281.58 390.491   2
  -5   0  -6 4457.46 337.315   3
   0  -5  -6 4159.89 391.994   3
  -5   0  -6 4923.17 405.225   5
   5  -5  -6 4001.59 393.653   3
  -5   5  -6 4294.53 295.114   5
   0   5  -6 4199.23 354.960   7
   5  -5  -6 3936.97 293.675   2
   5   0  -6 4154.46 383.303   2
  -5   0  -5 7059.41 396.523   9
   5   0  -5 7234.71 366.922   4
   0   5  -5 6447.07 451.058   2
  -5   0  -5 7022.04 399.803   3
   0  -5  -5 7559.81 498.299   3
  -5   0  -5 6504.32 441.708   5
   5  -5  -5 6858.48 458.528   3
  -5   5  -5 7619.47 391.947   5
   5  -5  -5 7186.61 409.418  10
   5  -5  -5 7523.81 394.138   2
   0   5  -5 7017.23 438.754   7
   0  -5  -5 6917.75 392.427  10
   5   0  -5 6713.76 458.514   2
   5   0  -4 98.7704 83.0938   4
   0   5  -4 214.884 134.729   7
   5  -5  -4 42.4052 88.5070   2
  -5   0  -4 160.658 96.2714   2
   5   0  -4-44.7282 117.214   2
  -5   0  -4 79.7586 88.6048   3
   0  -5  -4 35.9486 103.865   3
   0   5  -4 143.350 116.957   2
   5  -5  -4 303.229 151.832   3
  -5   0  -4 87.9128 113.441   5
   0   5  -4 36.9119 25.0989   5
  -5   5  -4-48.5591 101.308   5
   5  -5  -4-58.3354 112.297  10
   0  -5  -4 41.0333 86.1259  10
   5   0  -3 1046.26 142.850   4
   0   5  -3 1015.64 192.087   7
   5  -5  -3 1085.14 188.306  10
   5  -5  -3 1024.44 169.650   2
  -5   5  -3 1055.73 202.146   9
  -5   0  -3 995.911 162.635   2
   5   0  -3 754.701 174.492   2
  -5   0  -3 805.078 141.215   3
   0  -5  -3 821.173 174.460   3
   5  -5  -3 954.454 176.343   3
   0   5  -3 933.942 174.720   2
  -5   0  -3 931.170 188.127   5
   0   5  -3 950.832 108.327   5
   0  -5  -3 966.868 162.781  10
  -5   5  -3 890.681 158.957   5
   5   0  -3 988.443 159.929   5
   0   5  -2 3756.39 309.914   7
   0   5  -2 3818.93 282.317   2
  -5   5  -2 3773.15 309.458   9
   5   0  -2 4002.46 313.316   2
   0   5  -2 3739.38 262.524   1
   0  -5  -2 3791.51 313.742   3
   5  -5  -2 3952.32 260.700   3
   0   5  -2 3659.36 221.450   5
  -5   0  -2 3463.05 303.628   5
  -5   5  -2 3656.97 282.164   5
   5   0  -2 3399.26 271.127   5
   5  -5  -2 3777.37 283.363   2
   0  -5  -2 3587.33 284.680  10
   5   0  -2 3306.19 229.739   4
  -5   0  -2 3763.30 273.506   2
  -5   5  -1 25493.0 766.113   9
  -5   0  -1 25413.9 690.611   8
   0   5  -1 25303.6 765.014   7
   0   5  -1 25241.6 685.687   2
   5   0  -1 25463.8 761.805   2
   5   0  -1 25078.0 716.936   6
   0  -5  -1 25580.6 757.075   3
  -5   0  -1 23593.8 657.757   6
   0   5  -1 25126.4 622.390   1
   5  -5  -1 26328.0 598.199   3
   0   5  -1 24299.6 644.667   5
  -5   0  -1 24711.2 767.833   5
   5   0  -1 25479.1 746.319   5
  -5   5  -1 23978.9 738.393   5
   5  -5  -1 25303.3 743.020   2
   0  -5  -1 25291.6 415.647   1
   0   5  -1 25308.5 419.700   4
   0  -5  -1 25560.9 761.325  10
   5   0  -1 25384.8 663.120   4
  -5   0  -1 25279.5 726.545   2
  -5   0   0 7074.93 320.944   8
   0   5   0 7384.22 326.626   2
   0   5   0 7914.38 416.428   7
   5   0   0 7315.47 354.814   4
   0  -5   0 7506.52 266.016   1
   5   0   0 7281.52 361.776   6
  -5   0   0 6604.33 346.882   6
   5  -5   0 6814.37 230.577   3
   0   5   0 7764.17 283.660   1
   0   5   0 7688.69 372.847   5
   5   0   0 7420.58 361.473   3
  -5   0   0 7630.94 403.725   5
  -5   5   0 6325.55 377.870   5
   0   5   0 7342.13 261.328   4
   5  -5   0 7808.43 413.987   1
  -5   5   0 6548.24 371.452   4
   5   0   0 6690.02 379.602   2
   0  -5   0 7720.87 410.180  10
  -5   0   1 23956.7 550.916   8
   5   0   1 25100.5 678.375   6
   0   5   1 25338.7 566.670   2
   0   5   1 24827.5 731.720   7
   0  -5   1 25254.0 602.260   1
   0   5   1 24937.0 749.036   8
  -5   0   1 24354.4 697.122   6
   0  -5   1 25165.6 740.383   6
   5   0   1 24488.5 669.922   3
  -5   0   1 25531.0 741.019   5
  -5   5   1 26116.5 776.626   5
   5  -5   1 25359.7 772.641   1
   0   5   1 25092.9 435.401   1
   5   0   1 25127.9 730.454   2
   5   0   1 24528.3 715.769   4
  -5   5   1 26095.2 742.425   2
  -5   5   1 25647.7 763.729   4
   0  -5   1 24998.3 751.964  10
   0   5   1 24396.5 587.538   4
   5   0   1 25319.9 701.208   9
   0   5   2 3721.38 250.160   4
   0   5   2 3879.28 302.387   8
   0   5   2 3408.22 274.391   7
  -5   0   2 4100.52 296.491   6
   5   0   2 3648.98 255.319   6
   0  -5   2 3774.90 292.974   6
   0   5   2 3765.54 167.695   2
   5   0   2 3811.38 260.250   3
  -5   0   2 3569.72 275.261   5
   5  -5   2 4224.32 322.640   1
   5   0   2 3898.02 268.320   9
   5   0   2 3398.53 269.564   2
   5  -5   2 3370.81 289.247  10
   0  -5   2 3504.74 290.397  10
  -5   5   2 3410.78 261.197   2
  -5   5   2 3566.68 296.883   4
   0  -5   2 4059.40 261.486   1
   0   5   3 678.991 183.083   8
  -5   5   3 526.820 152.024   4
   0  -5   3 1022.83 166.771   1
   5   0   3 844.582 153.383   2
   0   5   3 920.193 160.204   4
   0   5   3 966.205 167.164   7
   5   0   3 720.970 151.598   1
   0  -5   3 643.855 144.770  10
  -5   0   3 962.127 168.133   6
   5   0   3 818.655 142.564   6
   0  -5   3 891.397 163.154   6
  -5   5   3 888.286 151.339   2
  -5   0   3 873.179 135.466   4
   5   0   3 1247.70 170.370   3
   5  -5   3 1157.30 210.510   1
  -5   0   3 862.597 154.366   5
   5  -5   3 913.568 175.386  10
   5   0   4 141.758 99.5471   1
  -5   5   4-3.57308 66.0281   8
  -5   0   4 105.012 80.7470   4
   0   5   4 29.6829 121.084   8
  -5   5   4-81.6939 121.961   4
   0  -5   4 88.8140 109.931   1
   0   5   4 55.5187 93.9490   4
   0   5   4 76.3625 110.630   7
   5  -5   4 259.355 136.219   1
  -5   0   4 53.8407 97.0557   6
   0  -5   4 274.896 124.885   6
   0  -5   4 14.6638 86.2391  10
  -5   5   4 197.301 94.4433   2
   5   0   4-85.5825 117.028   3
  -5   0   4 126.319 85.7989   5
   5  -5   4 1.40079 106.356  10
  -5   5   5 7302.04 331.899   8
   0   5   5 6467.90 442.417   8
  -5   0   5 6971.09 465.639   6
   5  -5   5 6922.78 475.721   1
   0  -5   5 6158.55 408.477   6
   5  -5   5 6851.43 211.305   6
   5   0   5 7178.24 398.723   1
   0  -5   5 6305.74 377.897  10
  -5   0   5 6752.53 354.841   5
   5  -5   5 6491.23 385.036  10
  -5   0   5 7228.20 370.930   4
   0  -5   5 7309.53 455.432   1
  -5   5   5 7355.51 479.400   4
   0   5   5 7064.67 447.445   4
   0   5   6 5051.69 411.175   4
  -5   5   6 4258.35 259.848   8
   0   5   6 5027.39 418.016   8
   5  -5   6 4385.79 402.081   1
   5   0   6 3834.96 310.276   1
  -5   0   6 4141.11 386.651   6
   0  -5   6 4813.65 384.469   6
  -5   0   6 5050.32 301.311   5
   5  -5   6 3845.89 293.954  10
  -5   0   6 4807.76 321.663   4
   0  -5   6 4160.54 379.060   1
  -5   5   6 5056.62 416.218   4
   0   5   7 3717.55 377.973   4
   0   5   7 4191.20 402.728   8
   5  -5   7 3642.95 394.230   1
   5   0   7 3958.20 327.774   1
  -5   0   7 4185.37 411.625   6
   0  -5   7 3949.63 374.988   6
  -5   0   7 4111.17 319.289   4
   0  -5   7 4315.03 407.869   1
  -5   5   7 4669.33 427.682   4
  -5   5   8-44.2215 176.370   4
   0   5   8 330.398 146.238   4
  -5   0   8 356.765 195.823   6
   0  -5   8 135.920 131.227   6
   5  -5   8 294.330 166.328   1
   0  -5   9 602.136 217.700   6
  -1   6  -8 628.796 195.893   7
  -5  -1  -8 547.498 211.764   3
  -5  -1  -8 381.966 174.579   5
  -1   6  -7 1852.78 269.225   7
   6  -5  -7 1493.82 231.588   2
  -6   5  -7 2031.26 301.055   9
   5   1  -7 1452.09 264.756   2
  -5  -1  -7 2232.53 296.404   3
   1  -6  -7 2011.80 320.657   3
  -5  -1  -7 2290.20 310.174   5
  -1   6  -7 1500.24 272.245   2
  -6   5  -6 1047.57 237.156   9
  -1   6  -6 679.068 182.358   7
   6  -5  -6 841.708 176.863   2
   1  -6  -6 425.839 139.899  10
   5   1  -6 885.352 208.364   2
  -5  -1  -6 1026.33 209.181   3
   1  -6  -6 656.699 217.725   3
  -5  -1  -6 1061.16 232.046   5
  -1   6  -6 731.929 215.850   2
  -6   5  -6 966.554 176.474   5
   6  -5  -6 927.877 167.877  10
  -1   6  -5 6040.36 431.519   7
  -5  -1  -5 5851.12 398.022   3
   1  -6  -5 5317.33 434.672   3
  -5  -1  -5 5719.80 445.588   5
  -6   5  -5 5354.64 377.639   5
   6  -5  -5 5663.31 382.226   2
   6  -5  -5 5625.22 388.157  10
   1  -6  -5 5907.38 389.265  10
   5   1  -5 5107.78 415.847   2
  -6   5  -5 5159.69 433.650   9
   5   1  -4 3185.85 216.861   4
  -1   6  -4 3153.61 308.730   7
  -5  -1  -4 4086.27 324.611   3
   1  -6  -4 3246.04 328.326   3
  -5  -1  -4 3857.33 355.959   5
  -6   5  -4 3960.04 314.178   5
  -1   6  -4 3291.79 163.170   5
   6  -5  -4 3753.02 313.636   2
   1  -6  -4 4001.89 324.300  10
  -5  -1  -4 3730.63 267.401   2
   5   1  -4 3801.29 347.059   2
  -6   5  -4 3588.51 342.126   9
  -1   6  -3 6365.53 416.283   7
   1  -6  -3 6496.28 426.540   3
  -1   6  -3 6657.17 290.964   5
  -5  -1  -3 6261.59 427.387   5
  -6   5  -3 5830.30 384.990   5
   5   1  -3 5550.65 339.270   5
   6  -5  -3 6120.66 390.401   2
   1  -6  -3 6197.97 396.548  10
   5   1  -3 6218.86 420.323   2
   5   1  -3 5557.29 281.297   4
  -5  -1  -3 6364.82 350.792   2
  -6   5  -3 6014.28 430.211   9
  -6   5  -2 1530.19 230.429   9
   5   1  -2 1426.79 147.034   8
   5   1  -2 1256.82 142.539   4
  -1   6  -2 1681.58 242.959   7
   6  -5  -2 1467.46 212.204   2
   1  -6  -2 1122.91 163.423   4
   5   1  -2 1377.62 211.290   2
  -5  -1  -2 1041.01 158.998   2
   1  -6  -2 1404.25 204.912   3
  -1   6  -2 1132.34 150.959   5
  -5  -1  -2 1712.82 229.001   5
  -6   5  -2 1238.57 202.573   5
  -1   6  -2 1450.88 188.756   1
   1  -6  -2 1234.76 199.285  10
  -6   5  -1 7752.96 450.685   9
   1  -6  -1 7635.46 342.244   4
   5   1  -1 7637.38 343.701   8
  -1   6  -1 8141.55 461.124   7
   1  -6  -1 7503.41 239.872   1
   1  -6  -1 7528.56 420.404   3
  -5  -1  -1 8444.90 427.772   6
  -1   6  -1 7697.28 374.989   5
   6  -5  -1 7464.59 317.094   3
  -5  -1  -1 6714.22 411.865   5
  -1   6  -1 7093.54 346.410   1
  -6   5  -1 7505.40 436.210   5
   6  -5  -1 7072.06 419.867   2
  -1   6  -1 7548.62 263.024   4
   1  -6  -1 7696.94 437.174  10
   5   1  -1 7244.52 335.719   4
   5   1  -1 7091.81 412.419   2
  -5  -1   0 5416.14 348.401   6
   1  -6   0 5474.72 251.082   1
  -5  -1   0 4815.54 287.521   8
   1  -6   0 5007.11 247.270   4
  -1   6   0 5182.81 367.178   7
  -6   5   0 5393.99 164.038   6
   1  -6   0 5303.47 340.800   3
   6  -5   0 5607.01 207.612   3
  -5  -1   0 5123.45 352.320   5
  -6   5   0 5219.44 371.210   5
  -1   6   0 5005.86 262.645   1
  -6   5   0 4819.62 352.576   4
   6  -5   0 5667.36 382.775   1
   5   1   0 5139.30 299.357   4
   5   1   0 5176.39 349.436   2
   1  -6   0 4677.33 342.772  10
  -1   6   0 4994.23 249.162   4
   5   1   1 7799.04 383.301   9
   1  -6   1 7893.78 347.627   1
   1  -6   1 7824.21 267.716   4
  -1   6   1 8128.37 450.598   7
  -5  -1   1 8590.18 447.391   6
  -5  -1   1 8104.91 429.382   5
  -6   5   1 7973.04 462.801   5
   5   1   1 7817.93 416.731   2
   6  -5   1 8109.25 462.589   1
   5   1   1 8036.04 399.876   4
  -6   5   1 8360.17 461.282   4
   1  -6   1 8673.48 467.865  10
  -1   6   1 8049.99 451.682   8
  -1   6   1 7838.96 349.560   4
  -1   6   1 8577.21 268.637   9
   5   1   2 1630.08 177.836   9
  -1   6   2 1608.08 221.651   8
  -6   5   2 1832.13 245.227   4
  -1   6   2 1527.84 123.219   2
  -1   6   2 1808.97 192.272   4
  -1   6   2 1398.23 202.086   7
   5   1   2 1855.82 212.827   2
   1  -6   2 1684.52 195.312   1
   1  -6   2 1426.91 94.3139   4
  -5  -1   2 1601.38 218.155   6
   1  -6   2 1827.01 213.233   6
   6  -5   2 1792.84 249.951   1
  -1   6   2 1633.94 137.828   2
  -5  -1   2 1646.90 199.473   5
  -6   5   2 1415.16 221.057   5
   1  -6   2 1383.80 210.506  10
  -1   6   3 6312.50 413.212   8
  -1   6   3 5372.08 362.672   7
  -5  -1   3 5399.30 383.254   6
  -1   6   3 4914.32 128.561   2
   1  -6   3 6251.44 380.368   6
   6  -5   3 5402.61 402.279   1
  -5  -1   3 5480.83 329.548   5
   1  -6   3 5438.70 351.313   1
  -6   5   3 5451.52 398.095   5
   5   1   3 5463.20 319.593   1
   5   1   3 5782.02 345.898   2
  -1   6   3 5135.33 132.778   2
   1  -6   3 6051.16 390.207  10
  -6   5   3 5984.05 412.482   4
  -1   6   3 5624.84 354.703   4
  -6   5   4 3533.66 211.298   8
  -1   6   4 3340.68 318.917   8
  -1   6   4 3710.74 306.634   7
  -5  -1   4 3150.83 318.595   6
   1  -6   4 3320.61 294.252   6
   6  -5   4 3441.70 341.767   1
   5   1   4 3258.86 251.823   1
  -5  -1   4 3496.90 255.537   5
  -6   5   4 3687.03 343.022   5
   1  -6   4 3467.79 300.325  10
  -6   5   4 3588.35 330.992   4
   1  -6   4 3269.51 301.808   1
  -1   6   4 2895.02 289.437   4
  -1   6   5 6294.61 434.249   4
  -6   5   5 5538.14 251.746   8
  -1   6   5 6013.64 444.763   8
  -5  -1   5 5712.34 447.394   6
   1  -6   5 5691.91 391.925   6
   6  -5   5 5155.26 433.240   1
   5   1   5 5955.26 345.569   1
  -6   5   5 5306.95 427.147   4
  -5  -1   5 5874.25 319.345   5
  -6   5   5 5318.73 421.002   5
   6  -5   5 6425.08 409.644  10
  -5  -1   5 5838.15 308.231   4
   1  -6   5 5902.83 389.671  10
   1  -6   5 6549.52 451.512   1
   5   1   6 677.911 133.978   1
   6  -5   6 614.651 189.630   1
  -1   6   6 535.157 182.810   8
  -6   5   6 660.004 202.078   4
  -1   6   6 906.618 191.180   4
   1  -6   6 717.939 193.733   1
  -5  -1   6 686.099 183.456   6
   1  -6   6 682.878 158.815   6
  -6   5   6 1020.93 242.546   5
   6  -5   6 644.311 159.130  10
   1  -6   6 660.654 154.978  10
  -1   6   7 1604.70 279.461   8
  -6   5   7 1510.09 275.797   4
   1  -6   7 1744.90 284.926   1
  -1   6   7 1972.87 289.012   4
   5   1   7 1417.20 263.555   4
  -5  -1   7 1895.54 294.669   6
   1  -6   7 1188.80 217.520   6
  -6   5   7 1292.09 280.200   5
   6  -5   7 1652.99 289.375   1
   1  -6   8 591.106 206.663   6
  -6   5   8 44.5121 193.548   5
  -1   6   8 636.928 214.482   8
  -6   4  -8 368.595 196.096   9
  -4  -2  -8 205.969 168.768   3
  -4  -2  -8 585.816 171.682   5
  -6   4  -7 1565.82 276.730   9
  -2   6  -7 2116.93 272.963   7
   6  -4  -7 1336.93 216.419   2
   4   2  -7 1292.89 256.249   2
  -4  -2  -7 1227.45 249.159   3
   2  -6  -7 1885.06 302.075   3
  -4  -2  -7 1252.94 250.629   5
  -6   4  -7 1282.81 201.863   5
  -6   4  -6 347.507 144.035   9
  -2   6  -6 190.473 131.326   7
   6  -4  -6 500.621 153.507   2
   4   2  -6 230.952 150.227   2
  -4  -2  -6 404.359 174.786   3
   2  -6  -6 475.432 172.420   3
  -4  -2  -6 407.201 164.786   5
  -6   4  -6 382.151 133.911   5
   2  -6  -6 21.5225 86.2251  10
   4   2  -5 5620.83 424.581   2
   6  -4  -5 6224.02 415.481   2
  -2   6  -5 6175.70 414.593   7
  -4  -2  -5 5960.24 419.492   3
   2  -6  -5 5953.62 444.308   3
  -4  -2  -5 5875.43 446.019   5
  -6   4  -5 6172.06 406.498   5
   2  -6  -5 5740.97 368.756  10
  -6   4  -5 6060.17 457.034   9
   4   2  -4 4987.02 210.631   4
   4   2  -4 5056.96 221.676   8
   4   2  -4 4788.91 374.816   2
  -2   6  -4 5485.28 389.399   7
  -4  -2  -4 4580.94 253.614   2
  -2   6  -4 4762.67 308.706   3
  -4  -2  -4 4573.12 349.755   3
   2  -6  -4 5140.89 391.558   3
  -2   6  -4 5097.73 223.009   5
   2  -6  -4 4152.33 135.993   1
  -4  -2  -4 4876.04 388.108   5
  -6   4  -4 4131.59 334.191   5
  -2   6  -4 5121.66 223.396   5
   4   2  -4 4449.61 259.920   5
   6  -4  -4 4764.96 353.509   2
   2  -6  -4 4889.47 342.484  10
  -6   4  -4 5062.56 397.220   9
  -6   4  -3 7764.77 468.863   9
   4   2  -3 7257.46 438.012   2
  -4  -2  -3 7370.31 334.151   2
   4   2  -3 8063.57 307.164   8
  -2   6  -3 8035.78 458.541   7
  -2   6  -3 7705.92 378.434   6
  -4  -2  -3 7885.36 439.344   3
  -2   6  -3 8127.97 387.941   3
   2  -6  -3 7961.99 217.819   1
   2  -6  -3 8039.15 453.057   3
  -2   6  -3 7629.60 318.963   5
  -4  -2  -3 7975.48 471.996   5
  -6   4  -3 8095.71 452.562   5
   4   2  -3 7964.97 367.302   5
   4   2  -3 8203.05 266.918   4
   2  -6  -3 7496.48 205.143   1
   6  -4  -3 7898.73 447.427   2
   2  -6  -3 7966.68 433.816  10
  -6   4  -2 6783.20 427.680   9
   2  -6  -2 6277.31 350.929   4
  -4  -2  -2 6391.70 321.722   2
   4   2  -2 6012.21 287.987   8
  -2   6  -2 6157.64 395.799   7
  -2   6  -2 6176.96 332.573   6
   2  -6  -2 6261.95 223.816   1
   2  -6  -2 6158.84 371.316   3
  -2   6  -2 6159.96 333.404   3
  -2   6  -2 6760.65 324.256   5
  -4  -2  -2 6576.75 410.309   5
  -6   4  -2 6119.19 390.015   5
   4   2  -2 5738.05 331.172   5
  -2   6  -2 5949.46 359.163   1
   6  -4  -2 6166.87 392.224   2
   2  -6  -2 6506.33 397.542  10
   4   2  -2 6157.17 242.404   4
   4   2  -2 5545.41 360.572   2
   2  -6  -1 9268.21 390.297   4
   4   2  -1 9186.97 381.596   8
  -4  -2  -1 9584.17 409.532   2
  -2   6  -1 9742.65 491.296   7
  -2   6  -1 9036.31 334.808   4
   2  -6  -1 9651.97 319.029   1
  -2   6  -1 8978.51 393.069   6
   2  -6  -1 8731.00 419.726   3
  -2   6  -1 8317.08 392.687   3
  -2   6  -1 9460.65 404.125   5
  -4  -2  -1 9380.97 468.631   5
   4   2  -1 9674.36 439.417   5
  -6   4  -1 9218.78 474.983   5
  -2   6  -1 9397.51 409.470   1
   6  -4  -1 9951.27 486.704   2
   4   2  -1 9159.58 406.679   1
   2  -6  -1 9203.66 467.889  10
   4   2  -1 9055.08 322.065   4
   4   2  -1 8630.86 426.517   2
  -2   6   0 88.9637 79.2751   9
   4   2   0 138.883 80.7480   4
   4   2   0 61.9641 98.7771   8
  -2   6   0 95.3566 84.6973   4
   6  -4   0 20.7261 132.742   2
   2  -6   0 112.128 73.7136   4
  -2   6   0-68.4685 146.629   7
  -6   4   0 62.5581 41.6900   6
  -2   6   0 148.981 91.5951   6
   4   2   0 101.070 107.604   2
  -4  -2   0 96.3888 108.188   6
   2  -6   0 9.22616 94.0052   3
  -4  -2   0 101.693 91.5026   2
  -2   6   0 166.973 114.098   3
  -2   6   0 156.962 98.8754   5
  -4  -2   0-0.86396 98.9147   5
  -6   4   0-11.3241 151.539   5
   2  -6   0 199.350 81.4777   1
   4   2   0 22.2443 76.4118   1
   2  -6   0 230.723 112.308  10
  -2   6   1 9397.13 322.783   9
   4   2   1 9388.70 371.318   9
   2  -6   1 9699.79 340.902   4
   4   2   1 9878.76 451.694   8
   2  -6   1 10047.0 404.273   1
  -2   6   1 9616.78 484.421   7
  -6   4   1 10367.7 341.458   6
  -4  -2   1 9546.16 471.435   6
  -2   6   1 8794.59 420.148   6
   6  -4   1 8462.91 176.792   3
  -2   6   1 9652.49 455.152   3
  -4  -2   1 8846.68 414.505   5
  -6   4   1 10342.8 507.953   5
   6  -4   1 10254.0 506.552   2
   6  -4   1 10499.0 513.317   1
   2  -6   1 9388.54 472.116  10
   4   2   1 9176.58 403.808   2
  -2   6   1 9847.56 407.682   4
  -6   4   1 10409.7 494.511   4
  -2   6   2 7404.23 413.693   8
   4   2   2 6826.72 407.456   8
   2  -6   2 6970.44 373.556   1
  -2   6   2 6996.65 413.481   7
  -6   4   2 6590.96 321.826   6
  -4  -2   2 7236.98 422.212   6
   2  -6   2 7013.39 358.463   6
  -4  -2   2 6694.29 349.432   5
  -6   4   2 6195.00 401.074   5
   6  -4   2 6343.53 421.537   1
  -2   6   2 6644.40 276.179   2
   4   2   2 6479.78 328.682   2
   2  -6   2 7125.94 410.888  10
  -6   4   2 6566.85 406.209   4
  -2   6   2 7086.01 373.509   4
   2  -6   2 6493.79 268.294   4
   4   2   2 6421.02 294.993   9
  -2   6   3 7279.88 422.227   8
   4   2   3 7278.87 449.806   8
   2  -6   3 7468.69 422.485  10
  -2   6   3 7014.12 419.630   7
  -4  -2   3 8020.87 460.690   6
   2  -6   3 8360.04 391.544   6
  -4  -2   3 7663.54 352.022   5
   6  -4   3 7461.43 453.782   1
  -6   4   3 7633.52 453.332   5
   4   2   3 7357.98 316.543   1
   2  -6   3 8098.85 430.069   1
   4   2   3 7776.17 351.748   2
  -2   6   3 7477.09 232.086   2
  -6   4   3 7882.51 450.884   4
   2  -6   3 7347.73 275.389   4
  -2   6   3 7605.08 419.339   4
  -2   6   4 5330.79 371.784   8
  -6   4   4 4407.05 170.924   8
   2  -6   4 4502.21 352.842   1
   6  -4   4 3950.97 285.875   7
  -4  -2   4 4277.30 355.622   6
   2  -6   4 4957.46 314.294   6
   4   2   4 4507.21 245.106   1
   6  -4   4 4326.96 355.908   1
  -4  -2   4 5427.70 276.953   5
  -6   4   4 4658.60 362.678   5
   2  -6   4 4782.44 339.796  10
  -6   4   4 4216.21 346.951   4
   2  -6   4 4707.00 224.398   4
  -2   6   4 4624.41 351.380   4
   2  -6   5 6638.36 451.784   1
  -2   6   5 5809.70 413.936   8
  -6   4   5 6094.02 431.699   4
   4   2   5 6715.77 278.337   7
   4   2   5 6128.74 291.337   1
  -4  -2   5 6139.35 458.490   6
   2  -6   5 5568.77 358.660   6
   2  -6   5 5481.27 362.704  10
   6  -4   5 6133.21 458.706   1
  -4  -2   5 6010.77 269.884   5
  -6   4   5 6359.35 436.591   5
  -4  -2   5 6377.10 259.868   4
  -2   6   5 6190.58 436.910   4
  -2   6   6 416.805 170.848   8
   6  -4   6 557.085 191.769   1
  -6   4   6 347.134 159.421   4
  -2   6   6 264.384 132.517   4
   4   2   6 289.232 166.863   4
   2  -6   6 191.720 132.829   1
  -4  -2   6 422.863 179.036   6
   2  -6   6 247.619 119.035   6
  -6   4   6 339.549 165.970   5
   2  -6   6 203.293 114.124  10
  -2   6   7 1444.46 248.347   4
  -2   6   7 1216.84 235.326   8
  -6   4   7 1641.23 266.002   4
   4   2   7 2019.51 304.820   4
   2  -6   7 1750.84 289.037   1
  -4  -2   7 2148.46 309.700   6
   2  -6   7 1541.81 234.302   6
  -6   4   7 1267.00 242.361   5
   6  -4   7 1550.40 263.832   1
  -2   6   8 430.224 205.494   8
  -6   4   8 813.503 216.907   4
   6  -4   8 507.109 205.699   1
  -6   4   8 363.692 173.616   5
  -6   3  -8 1260.98 256.864   9
   6  -3  -8 1511.87 270.287   2
  -3  -3  -8 1241.15 273.222   3
  -6   3  -8 1444.80 238.144   5
  -6   3  -7 833.311 232.795   9
  -3   6  -7 418.837 164.953   7
   6  -3  -7 560.138 181.227   2
   3   3  -7 729.574 210.532   2
  -3  -3  -7 359.114 197.168   3
   3  -6  -7 738.911 187.701   3
  -3  -3  -7 720.188 199.271   5
  -6   3  -7 518.080 162.713   5
   3   3  -6 3857.05 374.438   2
  -6   3  -6 3072.12 338.462   9
  -3   6  -6 2361.68 269.847   7
  -3  -3  -6 3300.24 344.634   3
  -3  -3  -6 3393.17 350.921   5
  -6   3  -6 3070.72 312.356   5
   3  -6  -6 3598.11 375.690   3
   3  -6  -6 3291.18 282.380  10
   6  -3  -6 3390.35 338.150   2
   3   3  -5 4398.03 380.758   2
  -3   6  -5 5089.88 372.878   7
  -3   6  -5 4439.97 273.213   3
  -3  -3  -5 4741.36 384.231   3
   3  -6  -5 4685.86 406.027   3
  -3  -3  -5 4703.86 390.992   5
  -6   3  -5 5329.94 386.971   5
  -3   6  -5 4718.04 216.160   5
   6  -3  -5 4602.69 369.043   2
   3  -6  -5 4947.45 341.847  10
  -6   3  -5 4638.61 382.323   9
   3   3  -4 10482.6 385.647   8
   3   3  -4 11096.8 559.321   2
  -3  -3  -4 9690.34 297.109   2
  -3   6  -4 10507.9 517.400   7
  -3   6  -4 9922.63 388.862   3
  -3  -3  -4 9861.72 531.710   3
   3  -6  -4 10025.9 529.599   3
  -3  -3  -4 10642.2 554.029   5
   6  -3  -4 9735.08 513.366   2
  -6   3  -4 9460.59 505.228   5
  -3   6  -4 10615.2 371.201   5
   3   3  -4 10330.8 339.469   5
   3  -6  -4 9869.68 334.353   1
   3  -6  -4 10125.4 485.158  10
  -6   3  -4 9797.55 523.471   9
  -6   3  -3 2949.78 294.441   9
   3   3  -3 2696.87 205.963   8
  -3  -3  -3 2374.39 163.291   2
  -3   6  -3 2260.29 258.829   7
   6  -3  -3 2191.76 255.118   2
  -3   6  -3 2402.71 188.347   3
  -3  -3  -3 2829.23 289.408   5
  -3  -3  -3 2165.96 250.229   3
   3   3  -3 2422.58 259.597   2
   3   3  -3 2351.29 191.245   5
   3  -6  -3 2475.62 260.695   3
  -3   6  -3 2539.81 207.735   5
   3  -6  -3 2294.26 175.541   1
  -6   3  -3 2426.98 264.818   5
   3  -6  -3 2602.83 259.097  10
   3   3  -2 22853.6 612.017   8
  -3  -3  -2 20911.4 542.478   2
  -3   6  -2 22133.9 746.902   7
  -3   6  -2 22689.1 566.204   6
  -3  -3  -2 22927.3 744.819   3
   3  -6  -2 22804.0 691.655   3
   3   3  -2 22497.4 715.406   2
  -3   6  -2 21688.0 564.190   3
  -3  -3  -2 23741.8 757.405   5
  -6   3  -2 21900.4 742.917   5
   3   3  -2 21743.5 613.333   5
   3  -6  -2 21955.0 548.828   1
   6  -3  -2 21627.4 734.121   2
   3  -6  -2 22487.3 729.395  10
   3   3  -2 20562.2 641.423   1
   3   3  -2 19467.1 316.308   4
   3   3  -1 2119.55 212.491   2
   3   3  -1 1992.85 198.915   8
  -3  -3  -1 1772.39 168.514   2
   3  -6  -1 2161.53 205.746   4
  -3   6  -1 1635.96 227.858   7
   6  -3  -1 1961.13 238.344   2
  -3   6  -1 1923.98 164.969   6
  -3   6  -1 1821.68 173.577   3
   3  -6  -1 1971.82 174.158   1
   3  -6  -1 1817.05 190.584   3
  -6   3  -1 2719.26 276.142   5
  -3  -3  -1 2063.98 227.700   5
   3   3  -1 1704.43 187.054   5
  -3   6  -1 1870.58 178.608   4
   3   3  -1 2037.20 121.039   4
   3  -6  -1 2025.03 231.854  10
   3   3  -1 2035.16 185.174   1
  -3   6   0 1519.91 169.402   9
   3   3   0 1230.21 164.761   8
  -3   6   0 1646.59 191.371   2
   3  -6   0 1309.79 165.365   4
  -3   6   0 1934.36 246.880   7
   6  -3   0 1415.15 220.354   2
  -6   3   0 1423.83 125.027   6
  -3   6   0 1378.76 146.709   6
  -3  -3   0 1462.40 208.063   6
   3   3   0 1372.24 168.792   2
   3  -6   0 1384.38 165.849   1
   3  -6   0 1390.48 157.812   3
  -3   6   0 1449.60 168.177   3
  -3  -3   0 1361.86 181.711   5
  -3  -3   0 1409.84 167.262   2
   3   3   0 1378.78 183.768   5
  -6   3   0 1536.23 208.137   5
  -3   6   0 1694.13 171.585   4
   3   3   0 1386.34 145.486   1
   3  -6   0 1411.51 195.685  10
  -3   6   1 1994.73 202.465   4
   3   3   1 1978.37 220.111   8
   6  -3   1 2205.97 251.794   2
   3  -6   1 1872.12 196.294   1
  -3   6   1 1746.88 180.843   2
  -3   6   1 1733.02 250.921   7
  -6   3   1 1939.10 165.245   6
   6  -3   1 2062.81 132.263   3
  -3   6   1 1919.25 191.787   6
  -3  -3   1 1850.67 236.842   6
  -3  -3   1 1823.95 192.902   5
  -3   6   1 2136.94 220.259   3
  -6   3   1 2276.82 254.352   5
   3   3   1 1858.64 145.559   1
   3   3   1 1935.10 180.948   2
   3  -6   1 1973.41 231.444  10
  -6   3   1 2174.55 242.672   4
   3  -6   1 1948.39 176.477   4
   3   3   2 23349.4 747.816   8
   3  -6   2 22058.5 588.658   4
   3  -6   2 22478.2 699.613   1
  -6   3   2 22101.5 620.902   6
  -3  -3   2 23396.2 766.585   6
   6  -3   2 22179.3 414.195   3
  -3  -3   2 22638.5 611.265   5
  -6   3   2 22277.3 751.345   5
   6  -3   2 22621.6 767.125   2
   6  -3   2 20835.0 732.356   1
   3   3   2 22256.2 461.404   1
  -3   6   2 21284.8 560.696   2
   3   3   2 22435.9 569.469   2
   3  -6   2 21941.3 722.961  10
  -6   3   2 21988.4 721.254   4
  -3   6   2 22110.1 691.779   4
   3   3   2 23430.3 480.337   9
  -3   6   3 2885.33 264.856   8
   3   3   3 2836.56 293.886   8
  -6   3   3 2162.21 99.4940   8
   3   3   3 2419.49 236.089   4
   3   3   3 2757.00 222.516   7
  -3   6   3 2446.29 250.920   4
  -6   3   3 2313.33 227.793   6
   6  -3   3 2346.64 118.644   6
   3  -6   3 2138.25 180.278   6
  -3  -3   3 2659.70 279.548   6
   3   3   3 2333.72 131.175   1
  -3  -3   3 2414.49 184.358   5
  -6   3   3 2411.49 265.511   5
   6  -3   3 2066.29 250.275   1
   3  -6   3 2300.46 189.042   4
   3   3   3 2176.86 121.136   1
   3   3   3 2568.11 175.622   2
   3  -6   3 2215.11 245.785   1
   3  -6   3 2754.22 265.211  10
  -6   3   3 2453.64 250.829   4
  -3   6   3 2401.31 164.937   2
  -3   6   4 10600.4 296.664   2
  -3   6   4 10124.0 492.532   8
   3   3   4 10195.4 507.775   4
   3   3   4 11310.8 571.345   8
   3   3   4 11032.6 412.304   7
   3  -6   4 10580.0 533.994   1
   3   3   4 10248.6 258.457   1
   6  -3   4 9143.24 412.840   7
  -6   3   4 10635.2 505.664   6
  -3  -3   4 10451.9 550.153   6
   6  -3   4 9881.08 286.434   6
   3  -6   4 10174.2 406.802   6
  -3  -3   4 10725.7 338.636   5
   6  -3   4 9956.40 527.962   1
  -6   3   4 9855.88 505.161   5
   3  -6   4 9992.69 485.942  10
  -6   3   4 9718.57 505.416   4
   3  -6   4 10270.4 407.195   4
  -3   6   4 10793.6 535.127   4
  -3   6   5 4847.04 355.783   8
   3   3   5 4695.27 375.793   4
   3   3   5 4736.41 397.510   8
   3   3   5 4729.73 247.686   7
   3  -6   5 4550.09 381.446   1
  -6   3   5 4390.18 363.317   6
  -3  -3   5 4798.49 393.232   6
   3  -6   5 4511.10 287.157   6
   6  -3   5 5001.03 393.774   1
  -3  -3   5 4304.69 163.207   5
  -6   3   5 4540.92 359.726   5
   3  -6   5 4649.63 334.105  10
  -3   6   5 4944.95 392.131   4
   3  -6   5 4318.83 277.913   4
  -6   3   5 4951.55 380.698   4
   6  -3   6 2882.18 319.935   1
  -3   6   6 3136.89 299.574   8
   3  -6   6 3304.82 353.172   1
   3   3   6 2966.17 330.570   4
  -3  -3   6 3703.28 369.469   6
   3  -6   6 3223.92 265.891   6
  -6   3   6 2720.13 323.604   6
  -6   3   6 2727.49 287.350   5
   3  -6   6 3174.91 276.004  10
  -6   3   6 3154.33 322.426   4
  -3   6   6 3398.84 345.354   4
  -3   6   7 519.234 174.956   8
  -6   3   7 307.299 188.689   4
  -3   6   7 524.691 179.017   4
   3   3   7 740.173 207.524   4
  -6   3   7 477.478 188.653   6
  -3  -3   7 377.602 164.671   6
   3  -6   7 748.265 198.668   1
  -6   3   7 559.971 162.102   5
   6  -3   7 383.911 173.019   1
  -6   3   8 1516.66 276.013   4
  -6   3   8 1520.37 286.916   6
  -3   6   8 1406.97 236.253   8
   6  -3   8 1233.27 249.428   1
  -6   2  -9 1235.35 269.274   9
  -6   2  -8 982.926 228.925   9
   2   4  -8 440.607 167.938   7
   6  -2  -8 858.082 220.706   2
  -2  -4  -8 215.408 183.308   3
  -6   2  -8 631.990 189.047   5
  -6   2  -7 1773.42 278.771   9
   2   4  -7 1633.22 269.021   7
   6  -2  -7 2050.45 317.219   2
  -2  -4  -7 1307.55 266.644   3
   2   4  -7 1346.37 246.318   2
   4  -6  -7 2095.21 322.544   3
  -6   2  -7 1553.74 253.876   5
  -6   2  -6 355.032 154.249   9
  -4   6  -6 17.4582 120.547   7
   6  -2  -6 692.607 208.812   2
  -6   2  -6 290.430 95.4773   3
  -2  -4  -6 337.242 176.766   3
   2   4  -6 239.549 116.822   2
   4  -6  -6 628.081 181.662   3
  -6   2  -6 233.261 140.034   5
   4  -6  -6 151.699 104.898  10
  -6   2  -5 6385.03 430.678   9
   2   4  -5 6105.17 444.188   2
  -4   6  -5 6221.87 408.263   7
  -6   2  -5 6169.00 301.787   3
  -2  -4  -5 6590.94 475.342   3
  -2  -4  -5 5655.77 439.930   5
   4  -6  -5 6204.36 444.491   3
  -6   2  -5 5692.34 416.020   5
  -4   6  -5 5886.50 300.957   5
   4  -6  -5 6354.09 328.153   1
   4  -6  -5 6590.13 400.596  10
   6  -2  -5 6366.12 448.422   2
  -6   2  -4 4439.91 350.235   9
   2   4  -4 4446.03 356.624   2
  -4   6  -4 4197.12 346.575   7
  -2  -4  -4 4501.47 374.113   3
  -4   6  -4 4292.58 202.811   3
   4  -6  -4 3886.07 343.240   3
  -2  -4  -4 5293.52 398.523   5
  -6   2  -4 4964.83 381.515   5
  -4   6  -4 4634.42 278.223   5
   2   4  -4 4593.12 193.832   5
   4  -6  -4 4919.56 346.888  10
   6  -2  -4 4401.73 359.583   2
   4  -6  -4 4120.85 267.322   9
   2   4  -3 7984.92 447.748   2
  -4   6  -3 7283.20 438.046   7
  -2  -4  -3 8069.20 475.472   3
  -4   6  -3 7682.95 260.363   3
   4  -6  -3 7784.21 423.691   3
  -2  -4  -3 8383.61 477.397   5
  -6   2  -3 7453.43 448.910   5
   2   4  -3 8353.93 320.617   5
  -4   6  -3 7814.79 375.993   5
   4  -6  -3 8023.02 441.902  10
   6  -2  -3 6990.98 436.202   2
   4  -6  -3 7585.96 357.804   9
   2   4  -2 6254.68 346.654   8
   2   4  -2 6320.74 374.120   2
   2   4  -2 6376.39 344.878   1
  -4   6  -2 6652.83 418.518   7
  -4   6  -2 6599.42 241.622   6
  -2  -4  -2 6836.88 417.260   3
   4  -6  -2 6650.88 362.267   3
  -4   6  -2 6630.58 251.083   3
  -2  -4  -2 6925.44 413.031   5
  -6   2  -2 6477.89 418.532   5
   2   4  -2 6700.80 322.093   5
  -4   6  -2 6411.69 351.247   5
   4  -6  -2 6514.21 337.797   1
   4  -6  -2 5925.45 379.201  10
   6  -2  -2 6553.56 417.426   2
   2   4  -1 10060.4 443.977   8
   2   4  -1 9229.31 421.386   2
  -6   2  -1 10462.2 440.580   8
  -4   6  -1 9653.54 502.304   7
  -2  -4  -1 8887.92 470.186   3
  -4   6  -1 9662.61 309.758   6
  -6   2  -1 10021.6 345.954   6
   4  -6  -1 10028.5 391.328   3
  -2  -4  -1 9796.36 459.692   5
  -4   6  -1 9817.26 334.991   3
   2   4  -1 9484.45 376.009   1
   2   4  -1 9085.34 401.024   5
  -6   2  -1 9496.32 483.324   5
   4  -6  -1 9777.60 422.572   1
   6  -2  -1 10034.4 500.572   2
  -4   6  -1 9821.34 429.147   4
   4  -6  -1 9520.40 479.853  10
   2   4  -1 9568.10 195.305   4
  -4   6  -1 9865.93 454.208   9
   2   4  -1 9043.98 192.952   4
  -4   6   0-56.8533 107.326   4
   4  -6   0 240.606 119.275   1
  -6   2   0 109.034 81.9504   8
   4  -6   0 75.7668 87.4550   4
  -4   6   0 194.136 116.220   2
   2   4   0 84.1062 50.9097   4
   4  -6   0-13.1411 117.668  10
   6  -2   0 137.800 118.854   2
   2   4   0 91.6217 107.650   8
  -6   2   0 2.44062 63.8128   6
  -4   6   0 57.4942 58.6046   6
  -2  -4   0 136.104 146.315   6
   6  -2   0-13.0460 73.2684   3
   2   4   0 49.2927 82.3777   2
  -4   6   0-16.2550 102.470   9
   4  -6   0 85.4771 71.4608   3
   2   4   0 158.342 72.7678   1
  -2  -4   0 93.4351 95.1607   5
   2   4   0-0.40600 94.2268   5
  -6   2   0 87.3574 123.695   5
   2   4   1 9722.52 354.870   4
   2   4   1 9245.75 451.587   8
  -6   2   1 9137.04 330.360   8
   2   4   1 9131.70 267.954   1
   2   4   1 9365.72 442.103   7
   6  -2   1 9590.15 348.438   6
  -6   2   1 9535.52 389.378   6
  -2  -4   1 9071.88 467.899   6
   6  -2   1 9192.38 338.426   3
  -4   6   1 8852.54 367.575   6
   4  -6   1 9618.47 449.606   1
  -2  -4   1 9628.36 406.518   5
  -6   2   1 9051.68 474.853   5
   6  -2   1 9001.98 468.699   2
  -4   6   1 9702.73 425.561   2
   4  -6   1 9817.67 482.724  10
  -4   6   1 9970.40 454.313   4
   4  -6   1 9792.84 425.385   4
   2   4   1 9053.08 354.344   2
   2   4   2 6023.74 318.262   4
  -6   2   2 6733.00 219.518   8
   2   4   2 6152.92 390.093   8
   2   4   2 5979.23 348.517   7
   6  -2   2 6316.14 272.349   6
  -6   2   2 6212.27 342.060   6
  -2  -4   2 6096.75 393.204   6
   4  -6   2 6230.29 385.861   1
   6  -2   2 6738.83 277.055   3
  -2  -4   2 6287.12 302.947   5
  -6   2   2 6022.04 391.748   5
   6  -2   2 6637.67 406.268   2
   6  -2   2 6005.46 385.445   1
  -4   6   2 6163.34 320.289   2
  -6   2   2 6279.79 370.284   4
   4  -6   2 5127.95 363.499  10
   2   4   2 6931.71 273.975   2
  -4   6   2 6245.03 386.417   4
   4  -6   2 5573.41 328.293   4
  -4   6   3 7918.09 408.132   8
   2   4   3 7435.05 395.701   4
   2   4   3 7602.99 454.588   8
   2   4   3 8575.42 401.991   7
  -6   2   3 7773.07 415.448   6
   4  -6   3 8039.67 461.223   1
   6  -2   3 7590.69 305.079   6
  -2  -4   3 7597.09 452.683   6
  -2  -4   3 8022.56 306.265   5
   6  -2   3 7835.17 310.990   3
   4  -6   3 8223.92 442.072  10
  -6   2   3 8057.13 442.867   5
   6  -2   3 7886.01 448.966   1
  -4   6   3 7734.54 447.549   4
  -2  -4   3 7636.65 402.600   1
   2   4   3 7883.23 246.887   2
  -6   2   3 8132.06 426.748   4
   4  -6   3 8144.53 390.939   4
  -4   6   3 7963.20 343.978   2
  -4   6   4 4364.25 307.345   8
   2   4   4 5362.21 364.721   4
   2   4   4 4764.61 386.831   8
   2   4   4 5346.29 302.763   7
   4  -6   4 5373.03 395.200   1
  -6   2   4 4610.06 348.647   6
  -2  -4   4 4973.45 378.782   6
   6  -2   4 4969.35 259.633   6
   4  -6   4 4769.38 228.941   6
   6  -2   4 4439.12 357.722   1
  -6   2   4 5276.24 360.516   5
  -2  -4   4 4094.40 322.656   1
   4  -6   4 4330.55 327.811  10
  -6   2   4 4838.25 346.339   4
  -4   6   4 4549.23 359.285   4
  -4   6   4 5136.15 263.105   2
   2   4   5 6270.95 426.266   4
  -4   6   5 6102.46 376.749   8
   2   4   5 6361.08 452.967   8
   4  -6   5 6197.77 383.361  10
   2   4   5 6184.58 309.642   7
   4  -6   5 6086.51 448.517   1
  -6   2   5 6050.74 433.385   6
  -2  -4   5 5991.78 438.618   6
   4  -6   5 6525.21 293.681   6
   6  -2   5 5905.74 416.911   1
  -6   2   5 5091.37 363.946   5
  -2  -4   5 5501.85 401.537   1
  -6   2   5 6400.83 406.264   4
  -4   6   5 6070.01 442.154   4
  -4   6   6 313.557 129.472   8
   2   4   6 391.356 187.013   8
  -6   2   6 330.953 165.107   4
  -4   6   6 396.962 160.741   4
  -2  -4   6 414.588 163.970   1
   2   4   6 475.920 167.833   4
   6  -2   6 409.916 148.781   1
  -6   2   6 444.163 183.983   6
  -2  -4   6 556.270 199.170   6
   4  -6   6 253.768 150.050   1
  -6   2   6 349.627 125.871   5
   4  -6   6 343.674 124.385  10
   6  -2   7 1370.62 236.145   1
  -4   6   7 1412.26 215.348   8
  -6   2   7 1404.75 238.580   4
  -4   6   7 2074.17 310.409   4
   2   4   7 1777.26 268.686   4
  -6   2   7 2452.72 323.475   6
  -2  -4   7 1743.13 300.718   6
  -2  -4   7 1875.57 285.709   1
   4  -6   7 1712.52 283.510   1
  -6   2   7 1862.69 241.799   5
  -6   2   8 727.185 212.877   4
  -2  -4   8 724.717 214.246   6
   6  -2   8 804.476 213.778   1
   1   5  -8 491.637 178.269   7
   6  -1  -8 488.080 182.733   2
  -6   1  -8 466.518 176.955   9
  -6   1  -8 357.930 176.690   5
  -6   1  -7 1698.63 255.155   9
   1   5  -7 2241.09 301.407   7
   6  -1  -7 1832.69 291.724   2
  -1  -5  -7 1611.65 298.810   3
   1   5  -7 1778.45 291.004   2
   5  -6  -7 1481.74 279.014   3
  -6   1  -7 2077.14 294.362   5
  -6   1  -6 485.375 151.228   9
   1   5  -6 932.448 199.328   7
   6  -1  -6 964.074 220.177   2
  -6   1  -6 916.794 162.683   3
  -1  -5  -6 810.220 204.945   3
   1   5  -6 562.494 173.930   2
   5  -6  -6 568.485 193.569   3
  -6   1  -6 831.153 210.320   5
   5  -6  -6 821.648 165.233  10
  -6   1  -5 6063.97 406.678   9
   1   5  -5 6082.33 456.329   2
   1   5  -5 6068.32 437.202   7
  -6   1  -5 6485.39 362.359   3
  -1  -5  -5 6031.34 463.167   3
   5  -6  -5 5866.90 444.886   3
  -6   1  -5 6199.78 457.156   5
  -5   6  -5 5965.91 344.545   5
   5  -6  -5 6122.99 347.057   2
   5  -6  -5 5838.66 388.917  10
   6  -1  -5 5253.00 428.478   2
   1   5  -4 3679.87 333.129   7
  -1  -5  -4 3460.01 341.273   3
   5  -6  -4 3636.08 328.637   3
  -6   1  -4 3880.23 348.536   5
   5  -6  -4 3906.14 323.348  10
  -5   6  -4 3603.83 277.607   5
   5  -6  -4 3481.31 271.567   2
   6  -1  -4 3316.35 326.294   2
   1   5  -4 3495.14 324.176   2
   1   5  -3 5764.28 387.169   2
   1   5  -3 5719.21 405.168   7
  -1  -5  -3 5749.30 412.537   3
   5  -6  -3 5304.07 348.525   3
  -6   1  -3 5949.58 414.694   5
   1   5  -3 5948.83 268.440   5
  -5   6  -3 5418.63 342.112   5
   5  -6  -3 5955.18 394.962  10
   6  -1  -3 5006.27 385.103   2
  -1  -5  -3 5801.72 384.517  10
  -5   6  -3 5749.88 405.866   9
  -5   6  -2 1769.09 240.269   9
   1   5  -2 1412.67 181.433   1
   1   5  -2 2000.90 260.095   7
   6  -1  -2 1662.55 233.974   2
  -1  -5  -2 1517.97 227.378   3
   5  -6  -2 1847.74 198.576   3
   1   5  -2 1537.17 204.943   2
   1   5  -2 1583.62 167.998   5
  -6   1  -2 1697.27 231.148   5
  -5   6  -2 1941.33 227.979   5
   5  -6  -2 1719.96 238.214  10
  -1  -5  -2 1700.01 223.356  10
  -5   6  -1 7627.48 429.731   9
   1   5  -1 8645.73 433.501   8
  -6   1  -1 7879.97 394.490   8
   1   5  -1 7746.37 385.809   2
   5  -6  -1 7912.94 458.104  10
   1   5  -1 8801.47 468.870   7
   1   5  -1 8106.99 351.742   1
  -5   6  -1 7789.42 199.964   6
  -1  -5  -1 7880.58 445.667   3
  -6   1  -1 7875.71 360.257   6
   5  -6  -1 8459.47 345.864   3
   1   5  -1 7643.21 375.222   5
  -6   1  -1 7707.20 449.792   5
  -5   6  -1 8024.90 428.814   5
   5  -6  -1 7825.06 416.533   1
  -5   6  -1 7490.54 411.953   4
   6  -1  -1 8249.29 459.656   2
  -1  -5  -1 8237.73 457.870  10
  -5   6   0 5967.47 371.103   9
   1   5   0 4620.33 330.214   8
  -6   1   0 5217.16 287.751   8
   1   5   0 5756.14 303.852   2
   1   5   0 5365.01 364.742   7
   6  -1   0 4790.07 300.718   6
   6  -1   0 4844.71 298.523   3
   1   5   0 5287.13 242.255   1
  -6   1   0 4838.46 290.974   6
  -5   6   0 4935.41 210.523   6
   5  -6   0 5432.22 233.189   3
  -6   1   0 4796.88 354.793   5
   5  -6   0 5519.58 361.083   1
  -5   6   0 5315.23 363.832   5
   6  -1   0 5215.64 369.036   2
   5  -6   0 6388.48 408.627  10
  -5   6   0 5542.91 359.579   4
  -1  -5   0 5401.68 366.256  10
   1   5   0 4785.25 207.391   4
   1   5   1 7517.84 313.994   4
   1   5   1 7304.51 310.884   2
   1   5   1 7740.88 430.813   8
  -6   1   1 7617.30 301.942   8
   1   5   1 7945.89 428.839   7
   6  -1   1 7189.41 350.709   6
  -6   1   1 7199.01 373.176   6
  -1  -5   1 7171.54 424.298   6
   6  -1   1 7643.64 360.047   3
   1   5   1 7185.29 213.277   1
  -6   1   1 8021.19 442.762   5
   5  -6   1 6875.50 406.523   1
  -1  -5   1 7832.98 331.586   1
   6  -1   1 7146.05 421.077   2
   5  -6   1 6707.00 424.412  10
  -5   6   1 7030.01 409.384   4
  -1  -5   1 8278.54 456.032  10
  -6   1   2 1482.34 105.438   8
   1   5   2 1360.02 226.487   8
   1   5   2 1494.51 203.783   7
   1   5   2 1356.05 161.439   4
   6  -1   2 1058.19 193.768   2
   1   5   2 1317.08 123.403   2
  -5   6   2 1229.76 175.445   2
   6  -1   2 1448.60 161.788   6
  -6   1   2 1555.18 200.218   6
  -1  -5   2 1412.91 220.016   6
   6  -1   2 1395.06 166.691   3
  -5   6   2 1638.48 227.394   4
  -6   1   2 1197.37 196.258   5
   5  -6   2 1461.27 228.520   1
   5  -6   2 1623.81 226.932  10
  -1  -5   2 1431.68 208.970  10
  -1  -5   2 1431.99 171.184   1
   1   5   3 6146.53 359.124   4
   1   5   3 5828.08 406.129   8
   1   5   3 5976.30 358.654   7
  -6   1   3 6393.39 397.474   6
   6  -1   3 5820.22 315.573   6
  -1  -5   3 7406.52 440.078   6
   5  -6   3 6916.59 436.385   1
   6  -1   3 5591.18 314.815   3
  -5   6   3 5297.66 390.627   4
  -6   1   3 6631.10 403.227   5
   6  -1   3 5773.91 381.594   1
   6  -1   3 6071.93 391.065   2
   1   5   3 5625.77 151.497   2
  -1  -5   3 6210.73 362.120   1
   5  -6   3 6166.45 397.664  10
  -6   1   3 6303.59 366.581   4
  -5   6   3 5483.95 326.018   2
   1   5   4 3130.36 284.932   4
  -5   6   4 3746.90 273.959   8
   1   5   4 3660.33 340.608   8
   1   5   4 3649.27 275.219   7
  -6   1   4 3649.23 328.235   6
   5  -6   4 4051.17 361.946   1
  -1  -5   4 3259.36 311.681   6
   6  -1   4 3160.48 248.172   6
   6  -1   4 3191.69 249.780   3
   6  -1   4 3300.30 296.339   1
  -6   1   4 3161.22 285.214   5
  -1  -5   4 3441.19 302.545   1
   5  -6   4 3759.15 317.385  10
  -6   1   4 3405.90 280.306   4
  -5   6   4 3703.44 339.302   4
  -5   6   4 3530.58 256.642   2
   1   5   5 5005.48 389.551   4
  -5   6   5 5076.16 320.149   8
   1   5   5 6543.23 467.644   8
   1   5   5 4886.97 309.961   7
   5  -6   5 5370.98 430.932   1
  -6   1   5 5611.84 422.572   6
  -1  -5   5 6236.53 446.523   6
   6  -1   5 4969.35 374.711   1
  -6   1   5 5252.98 354.657   5
  -1  -5   5 5439.98 404.478   1
   5  -6   5 5598.78 379.506  10
  -6   1   5 5561.50 367.760   4
  -5   6   5 5578.06 435.387   4
  -1  -5   6 705.870 195.506   1
  -5   6   6 670.927 145.535   8
  -6   1   6 619.155 146.708   4
   1   5   6 653.805 195.451   8
   5  -6   6 823.160 161.370  10
  -5   6   6 866.525 217.162   4
   1   5   6 950.030 203.293   4
   6  -1   6 988.229 183.119   1
  -6   1   6 614.941 172.011   6
  -1  -5   6 849.046 195.832   6
   5  -6   6 842.604 217.929   1
  -6   1   6 762.816 157.515   5
  -1  -5   7 1890.54 282.531   1
   6  -1   7 1483.18 232.443   1
  -6   1   7 1953.14 258.638   4
   1   5   7 2515.75 345.200   8
  -5   6   7 1661.79 281.510   4
   1   5   7 1859.98 285.718   4
  -6   1   7 2050.27 312.583   6
  -1  -5   7 1855.12 288.600   6
   5  -6   7 1818.88 285.142   1
  -1  -5   8 19.5068 169.315   6
   0   6  -8 1548.39 267.592   7
   0   6  -7-9.87648 142.712   7
   6   0  -7 53.9219 175.178   2
  -6   0  -7 209.493 131.627   3
   0  -6  -7 276.955 172.724   3
   0   6  -7-11.0753 169.023   2
  -6   0  -7-10.2295 129.773   5
   6  -6  -7-47.3774 187.762   3
  -6   6  -6 2629.98 336.330   9
   0   6  -6 2704.13 313.711   7
  -6   0  -6 2949.81 297.008   3
   6   0  -6 2688.05 339.993   2
  -6   0  -6 3233.52 364.279   5
  -6   6  -6 2973.07 283.470   5
   0  -6  -6 3290.13 373.815   3
   0   6  -6 2721.22 338.573   2
   6  -6  -6 2584.75 342.735   3
   6  -6  -6 3085.67 284.370   2
   6  -6  -6 2753.79 289.988  10
  -6   6  -5 233.037 163.098   9
   0   6  -5 421.275 166.001   7
   6  -6  -5 110.709 106.288   2
   6   0  -5 179.620 134.505   2
  -6   0  -5 55.4723 98.1172   3
   0  -6  -5 274.966 168.444   3
   0   6  -5 189.647 146.666   2
   6  -6  -5-19.6341 133.560   3
  -6   0  -5 188.477 133.206   5
  -6   6  -5-39.3894 111.551   5
   6  -6  -5 244.919 142.428  10
   0  -6  -5 222.120 121.911  10
   0   6  -4 6303.07 448.551   7
   0   6  -4 6945.13 467.459   2
   0  -6  -4 7985.87 516.672   3
   6  -6  -4 6556.97 433.655   3
  -6   0  -4 7650.19 511.175   5
  -6   6  -4 6546.72 410.527   5
   6  -6  -4 6841.25 413.037   2
   6  -6  -4 7487.53 464.532  10
   0  -6  -4 7175.12 448.334  10
   6   0  -4 6995.59 481.833   2
  -6   6  -4 7338.97 504.929   9
  -6   6  -3 1035.65 212.695   9
   6   0  -3 861.411 144.651   4
   6  -6  -3 931.087 172.537   2
   0   6  -3 723.842 181.410   7
   6   0  -3 973.262 194.367   2
   0  -6  -3 1082.36 218.198   3
   6  -6  -3 742.489 166.546   3
   0   6  -3 672.681 164.268   2
  -6   0  -3 754.430 190.274   5
   0   6  -3 871.743 120.792   5
  -6   6  -3 849.495 177.651   5
   6  -6  -3 908.940 186.330  10
   0  -6  -3 862.762 178.910  10
  -6   6  -2 9769.45 534.027   9
   0   6  -2 8633.67 498.777   7
   0   6  -2 8249.65 447.053   2
   0  -6  -2 7843.31 476.494   3
   6   0  -2 7836.59 394.115   4
   6  -6  -2 8695.10 397.141   3
   0   6  -2 8431.84 382.492   5
  -6   0  -2 8541.53 500.325   5
  -6   6  -2 8555.11 475.752   5
   6  -6  -2 8791.94 470.768   2
   6  -6  -2 8913.45 498.019  10
   0  -6  -2 8793.66 487.896  10
   6   0  -2 8076.35 480.668   2
   6  -6  -1 843.227 180.741   1
  -6   6  -1 501.368 161.406   9
   6  -6  -1 625.135 180.400  10
   0   6  -1 807.734 175.703   7
   6   0  -1 778.782 181.398   2
  -6   0  -1 691.489 148.086   6
   0  -6  -1 964.344 193.149   3
   6  -6  -1 501.035 104.573   3
   0   6  -1 693.308 135.523   2
   0   6  -1 603.497 123.654   5
   0   6  -1 884.258 134.301   1
  -6   0  -1 887.045 186.766   5
  -6   6  -1 768.367 178.019   5
   0   6  -1 807.017 70.5471   4
   0  -6  -1 807.462 176.588  10
   0   6   0 6650.69 417.890   8
  -6   0   0 5282.86 305.664   8
   0   6   0 5862.01 318.282   2
   0   6   0 6281.63 412.584   7
  -6   0   0 5756.30 355.835   6
  -6   6   0 5926.65 186.953   6
   6  -6   0 6381.83 226.276   3
  -6   0   0 5576.64 385.843   5
   0   6   0 5716.97 267.986   1
  -6   6   0 5134.03 375.356   5
   6  -6   0 6365.23 416.919   1
   0  -6   0 6397.12 260.553   1
   6  -6   0 6456.82 436.005  10
   6   0   0 5641.85 391.039   2
  -6   6   0 5366.92 379.008   4
   0  -6   0 5721.49 397.753  10
   0   6   0 5810.56 249.660   4
  -6   0   1 619.806 101.189   8
   0  -6   1 750.682 123.390   1
   0   6   1 919.364 190.447   8
  -6   6   1 793.656 183.035   4
   0   6   1 926.800 130.347   4
   0   6   1 817.562 180.324   7
   6   0   1 540.659 151.584   2
  -6   0   1 787.921 159.856   6
   0  -6   1 997.325 185.306   6
   0   6   1 722.311 117.113   2
   6  -6   1 778.127 183.242   1
  -6   0   1 741.857 170.968   5
  -6   6   1 753.425 183.617   5
   6  -6   1 312.340 142.790  10
   0  -6   1 792.916 170.083  10
   0   6   1 809.064 75.8721   9
   0   6   2 8317.02 288.878   2
   0   6   2 8979.31 498.230   8
   0   6   2 8834.84 474.429   7
  -6   0   2 8523.46 464.810   6
   0  -6   2 8280.94 468.194   6
   6  -6   2 8174.29 491.516   1
  -6   0   2 7778.13 438.004   5
  -6   6   2 8762.69 509.101   5
   6   0   2 7892.11 440.514   2
   6  -6   2 8022.96 475.061  10
   0  -6   2 7650.64 380.196   1
  -6   6   2 8414.03 486.521   4
   0  -6   2 8701.94 487.377  10
   0   6   2 8192.17 393.273   4
   0   6   3 844.255 187.552   8
  -6   6   3 1166.89 212.975   4
   0  -6   3 842.916 159.914   1
   0   6   3 906.057 156.515   4
   6   0   3 885.416 167.083   2
   0   6   3 1010.28 189.515   7
  -6   0   3 1203.68 196.976   6
   0  -6   3 750.232 166.257   6
   6   0   3 786.302 165.919   1
   6  -6   3 639.273 174.331   1
  -6   0   3 947.151 174.887   5
   6  -6   3 830.432 175.276  10
   0  -6   3 601.249 167.609  10
   0   6   4 6965.31 432.786   4
  -6   6   4 7249.20 363.146   8
   0   6   4 7644.12 506.026   8
   0   6   4 7547.30 428.533   7
  -6   0   4 7178.02 473.992   6
   0  -6   4 7343.54 461.898   6
   6  -6   4 7725.42 516.003   1
  -6   0   4 7070.83 408.587   5
   6   0   4 6906.71 408.624   1
   6  -6   4 6559.19 440.734  10
  -6   0   4 7234.97 386.168   4
   0  -6   4 7184.52 442.261   1
   0  -6   4 7244.78 451.413  10
  -6   6   4 7188.98 481.849   4
   6  -6   5 19.7558 120.244  10
  -6   0   5 112.714 93.9037   4
  -6   6   5 148.415 82.6495   8
   0  -6   5 222.254 164.279   1
  -6   6   5 1.46181 147.619   4
   6  -6   5 187.850 160.385   1
   0   6   5 133.321 109.903   4
   0   6   5 358.114 140.648   7
  -6   0   5 314.649 151.326   6
   0  -6   5 266.198 147.171   6
   0   6   5 168.932 130.361   8
   6   0   5 232.731 114.792   1
  -6   0   5 101.242 95.3326   5
   0  -6   5-82.1983 108.262  10
   6  -6   6 3049.62 361.254   1
   0  -6   6 2787.72 330.524   1
   0   6   6 2325.02 309.705   8
  -6   6   6 3062.12 347.814   4
   0   6   6 2951.15 325.834   4
   6   0   6 3410.06 306.081   1
   0  -6   6 3342.59 344.282   6
  -6   0   6 2874.00 341.832   6
   6  -6   6 2866.94 289.634  10
  -6   0   6 2983.91 263.193   4
   0  -6   7 122.760 147.402   1
   0   6   7 118.095 164.913   8
  -6   6   7 38.2972 131.912   4
   0   6   7 65.2010 134.391   4
  -6   0   7-63.5314 162.259   6
   0  -6   7-44.4958 133.025   6
   6  -6   7-31.7471 144.701   1
   0  -6   8 1382.06 277.739   6
  -1   7  -7 772.023 214.038   7
  -6  -1  -7 761.848 229.325   3
   7  -6  -7 736.055 227.915   3
  -1   7  -6 364.285 189.768   7
   7  -6  -6 828.771 191.924   2
  -7   6  -6 998.079 245.518   9
   6   1  -6 723.677 200.995   2
  -6  -1  -6 624.470 187.759   3
   1  -7  -6 723.773 206.803   3
  -6  -1  -6 498.772 178.599   5
  -1   7  -6 823.057 201.745   2
   7  -6  -6 601.283 209.484   3
  -7   6  -6 586.781 159.466   5
   7  -6  -6 364.578 146.360  10
   1  -7  -6 1053.84 208.918  10
  -7   6  -5 2729.36 351.082   9
  -1   7  -5 2578.41 328.364   7
   7  -6  -5 2167.51 278.181   2
   7  -6  -5 2500.72 296.506  10
   6   1  -5 2221.02 309.741   2
  -6  -1  -5 1902.69 259.870   3
   1  -7  -5 2487.78 323.969   3
  -6  -1  -5 2810.13 347.622   5
  -1   7  -5 2183.26 297.403   2
   7  -6  -5 2597.36 308.832   3
  -7   6  -5 2500.21 290.615   5
   1  -7  -5 2013.16 266.283  10
  -7   6  -4 1902.03 300.358   9
  -1   7  -4 2505.92 302.418   7
   7  -6  -4 2032.57 264.828   2
   6   1  -4 2177.29 305.505   2
   1  -7  -4 1813.42 269.999   3
  -6  -1  -4 1950.00 290.131   5
   7  -6  -4 1846.43 249.853   3
  -1   7  -4 1736.08 258.453   2
  -7   6  -4 1845.67 252.332   5
   7  -6  -4 1589.97 255.701  10
   1  -7  -4 2360.31 279.114  10
  -7   6  -3 10373.4 603.490   9
  -1   7  -3 9607.59 561.708   7
   1  -7  -3 9335.21 552.344   3
   7  -6  -3 8651.90 457.954   3
  -6  -1  -3 9613.36 582.016   5
  -7   6  -3 8405.62 504.876   5
   7  -6  -3 9816.98 545.042   2
   1  -7  -3 9224.95 535.864  10
   6   1  -3 8869.00 547.255   2
  -7   6  -2 2291.79 296.053   9
   6   1  -2 2094.86 199.861   4
   7  -6  -2 2246.24 271.411   2
  -1   7  -2 2207.34 285.258   7
   6   1  -2 1987.20 267.663   2
   7  -6  -2 2252.79 220.233   3
   1  -7  -2 1796.60 253.977   3
  -6  -1  -2 2151.20 275.430   5
  -7   6  -2 2411.76 282.210   5
   1  -7  -2 2442.00 281.132  10
  -1   7  -1 3623.27 346.921   7
  -1   7  -1 3480.92 287.497   2
   1  -7  -1 3716.37 326.810   3
   7  -6  -1 3945.19 232.203   3
  -6  -1  -1 4519.01 378.988   5
  -7   6  -1 3287.72 327.022   5
  -1   7  -1 3514.78 267.080   1
   7  -6  -1 3474.89 338.531   2
   1  -7  -1 3585.38 167.006   1
  -1   7  -1 3888.48 192.039   4
   6   1  -1 3819.55 337.394   2
   1  -7  -1 3835.99 347.836  10
   6   1  -1 3447.75 258.536   4
  -7   6   0 1939.76 255.548   4
  -1   7   0 2349.04 216.116   2
  -1   7   0 2443.38 291.907   7
   6   1   0 2425.49 267.636   2
   7  -6   0 2241.50 124.108   3
  -6  -1   0 2147.08 254.900   6
   7  -6   0 2005.43 266.481   1
  -6  -1   0 2206.10 270.509   5
   1  -7   0 2240.78 169.840   1
  -7   6   0 2216.91 275.243   5
  -1   7   0 2133.36 185.487   1
  -1   7   0 2375.64 187.094   4
   1  -7   0 1962.86 259.928  10
  -1   7   1 4239.01 191.698   9
  -1   7   1 5252.26 399.913   8
  -1   7   1 4235.21 261.163   2
  -1   7   1 4155.55 356.364   7
  -7   6   1 4064.08 207.454   6
  -6  -1   1 4157.93 339.742   6
  -6  -1   1 4035.91 335.590   5
  -7   6   1 4217.12 379.037   5
   7  -6   1 3350.86 333.863   1
   6   1   1 4255.06 337.435   2
  -7   6   1 4405.08 375.816   4
   1  -7   1 4812.46 378.571  10
  -1   7   1 4535.75 278.178   4
   1  -7   1 4555.29 279.699   1
  -1   7   2 2340.89 283.981   8
  -1   7   2 1935.11 152.360   2
  -7   6   2 1705.86 252.828   4
  -1   7   2 1968.35 263.843   7
   6   1   2 1912.91 243.421   2
  -6  -1   2 2175.58 267.728   6
   7  -6   2 2014.25 278.140   1
   1  -7   2 2211.82 259.323   6
  -6  -1   2 2124.52 246.334   5
  -7   6   2 2026.83 275.386   5
   1  -7   2 2142.24 217.284   1
  -1   7   2 2274.39 224.639   4
   1  -7   2 1816.72 248.175  10
  -1   7   3 9008.69 542.916   8
  -1   7   3 9707.47 530.335   7
  -6  -1   3 8849.08 532.422   6
   1  -7   3 8392.90 486.548   6
   7  -6   3 9669.04 576.419   1
  -6  -1   3 8644.36 469.414   5
  -7   6   3 9496.15 569.200   5
   6   1   3 8763.16 451.370   1
   6   1   3 9520.30 487.051   2
  -7   6   3 8906.11 546.612   4
   1  -7   3 9159.34 532.899  10
   1  -7   3 8587.36 463.309   1
  -1   7   3 8943.03 469.721   4
  -7   6   4 1819.18 171.715   8
  -1   7   4 2027.45 278.361   8
  -7   6   4 1912.81 294.934   4
   6   1   4 2168.25 230.756   1
   6   1   4 1918.89 231.787   2
  -1   7   4 2250.31 270.304   4
   1  -7   4 1964.07 269.233   1
  -1   7   4 2258.97 269.416   7
  -6  -1   4 1953.32 273.134   6
   1  -7   4 1890.70 257.300   6
  -6  -1   4 2490.81 247.774   5
   7  -6   4 1819.81 289.504   1
  -7   6   4 2156.03 298.608   5
   7  -6   4 1838.49 260.030  10
   1  -7   4 1858.74 253.904  10
  -1   7   5 1752.31 278.302   8
  -7   6   5 2170.01 291.298   4
  -1   7   5 2511.61 303.869   4
   1  -7   5 2726.92 330.382   1
   7  -6   5 2006.04 314.115   1
  -6  -1   5 2255.37 306.489   6
   1  -7   5 1749.26 253.886   6
  -6  -1   5 2161.36 225.347   5
  -7   6   5 2530.38 330.909   5
   7  -6   5 1706.97 252.147  10
   1  -7   5 1998.88 260.977  10
  -1   7   6 941.544 241.291   8
   7  -6   6 477.260 200.261   1
  -7   6   6 725.289 220.291   4
   1  -7   6 424.864 179.011   1
  -1   7   6 567.443 173.102   4
  -6  -1   6 629.735 192.681   6
   1  -7   6 659.273 179.470   6
  -7   6   6 546.365 192.473   5
   7  -6   6 950.163 201.615  10
   1  -7   6 865.581 189.671  10
  -1   7   7 641.234 208.754   8
   1  -7   7 969.598 214.438   6
  -7   6   7 1159.28 258.857   5
  -5  -2  -8 2000.77 314.102   3
  -7   5  -7-178.395 193.464   9
  -2   7  -7-87.6236 147.325   7
   7  -5  -7-279.311 163.511   2
  -5  -2  -7 322.750 171.246   3
  -5  -2  -7-39.3817 138.941   5
  -7   5  -6 1122.18 229.890   9
  -2   7  -6 1071.98 219.899   7
   7  -5  -6 894.969 206.630   2
   5   2  -6 1347.31 250.156   2
  -5  -2  -6 718.512 206.809   3
   2  -7  -6 832.561 242.275   3
  -5  -2  -6 1124.19 240.462   5
  -7   5  -6 1269.94 211.925   5
   7  -5  -6 1114.61 210.462  10
   2  -7  -6 1283.44 207.713  10
  -7   5  -5 720.542 210.950   9
  -2   7  -5 840.768 213.973   7
   7  -5  -5 420.014 171.487   2
   5   2  -5 632.734 194.760   2
  -5  -2  -5 618.819 175.027   3
   2  -7  -5 610.504 189.786   3
  -5  -2  -5 636.896 198.780   5
  -7   5  -5 589.540 177.400   5
   2  -7  -5 615.867 159.736  10
  -7   5  -4 9652.89 585.840   9
  -2   7  -4 10427.1 585.477   7
  -5  -2  -4 9824.10 550.273   3
   2  -7  -4 9531.89 564.189   3
  -5  -2  -4 10236.7 597.498   5
  -7   5  -4 9828.61 542.729   5
   7  -5  -4 10167.4 557.971   2
   2  -7  -4 10178.7 541.709  10
   5   2  -4 9598.05 571.882   2
   5   2  -3 816.342 122.936   8
  -2   7  -3 672.023 187.967   7
   7  -5  -3 646.549 169.489   2
   5   2  -3 694.359 184.027   2
   2  -7  -3 655.904 173.984   3
  -7   5  -3 586.148 173.510   9
  -5  -2  -3 549.423 170.640   5
  -7   5  -3 902.343 196.804   5
   2  -7  -3 764.757 175.615  10
   2  -7  -2 5032.71 186.230   1
   5   2  -2 5082.36 289.336   8
  -2   7  -2 5086.55 395.996   7
   2  -7  -2 5765.46 396.094   3
  -2   7  -2 5090.85 312.502   5
  -5  -2  -2 5363.41 402.065   5
  -7   5  -2 5361.13 398.981   5
   7  -5  -2 4742.42 387.990   2
   2  -7  -2 5236.85 389.185  10
   5   2  -2 4880.37 374.627   2
   5   2  -2 5044.45 254.645   4
  -2   7  -1 327.182 114.352   1
  -2   7  -1 649.358 103.493   4
   5   2  -1 588.418 134.212   8
   5   2  -1 597.100 107.126   4
   7  -5  -1 421.996 156.006   2
  -2   7  -1 469.673 161.818   7
   2  -7  -1 800.341 137.109   4
   5   2  -1 561.593 151.609   2
   2  -7  -1 689.197 147.863   3
   2  -7  -1 730.410 100.872   1
  -5  -2  -1 455.503 136.655   5
  -7   5  -1 588.024 149.808   5
   2  -7  -1 579.208 161.231  10
   2  -7   0 6378.00 314.919   4
   5   2   0 7886.48 406.478   8
   2  -7   0 7272.42 324.289   1
  -2   7   0 6593.75 448.396   7
   2  -7   0 7588.04 415.134   3
  -7   5   0 6926.66 195.138   6
  -5  -2   0 7276.80 441.917   6
   7  -5   0 7066.14 251.571   3
  -5  -2   0 7458.94 442.351   5
  -7   5   0 7720.05 478.180   5
  -2   7   0 7236.00 338.394   9
   7  -5   0 7181.02 467.763   2
   5   2   0 6576.80 340.662   4
   2  -7   0 7078.00 448.991  10
  -2   7   0 7120.96 334.131   4
   5   2   0 7635.95 432.905   2
   5   2   1 581.163 127.507   9
  -2   7   1 741.206 105.163   9
  -7   5   1 709.846 174.371   4
   5   2   1 474.222 146.956   8
  -2   7   1 824.392 140.701   4
   7  -5   1 699.808 187.548   1
   2  -7   1 439.773 90.9194   4
  -2   7   1 507.106 172.253   7
   5   2   1 552.638 144.164   2
  -7   5   1 522.538 93.4790   6
  -5  -2   1 703.469 165.335   6
   2  -7   1 606.752 119.188   1
  -5  -2   1 1083.95 192.457   5
  -7   5   1 599.355 172.319   5
   5   2   1 470.635 109.552   1
   2  -7   1 522.110 167.244  10
   2  -7   2 4913.16 231.725   4
  -2   7   2 4932.46 382.441   8
   2  -7   2 4768.45 324.654   1
   5   2   2 4845.32 367.625   8
  -2   7   2 5433.44 399.217   7
  -7   5   2 5121.81 285.055   6
  -5  -2   2 5329.92 395.504   6
  -5  -2   2 5642.14 356.584   5
  -7   5   2 5039.14 397.710   5
   7  -5   2 4908.92 400.146   1
  -2   7   2 4922.31 261.436   2
   5   2   2 5046.90 335.919   2
  -7   5   2 5499.94 405.936   4
   2  -7   2 5315.65 387.806  10
  -2   7   2 5342.22 342.694   4
   5   2   2 5151.25 298.796   9
  -2   7   3 800.622 184.319   8
  -7   5   3 592.649 161.831   4
   5   2   3 506.502 113.713   1
  -2   7   3 651.648 154.249   4
   7  -5   3 679.850 191.251   1
   5   2   3 802.238 144.553   2
  -2   7   3 792.504 200.201   7
  -7   5   3 619.804 152.313   6
  -5  -2   3 728.786 175.230   6
   2  -7   3 776.858 168.557   6
   2  -7   3 684.001 145.780   1
  -2   7   3 666.284 74.9995   2
  -5  -2   3 788.297 152.764   5
  -7   5   3 571.063 171.228   5
   2  -7   3 927.342 187.345  10
   2  -7   4 9554.47 534.446   1
  -2   7   4 10398.7 571.197   8
  -5  -2   4 10328.4 591.375   6
   2  -7   4 9558.06 491.842   6
   7  -5   4 9586.35 579.419   1
   5   2   4 9580.31 402.455   1
  -5  -2   4 9482.93 427.707   5
  -7   5   4 11292.0 611.020   5
   5   2   4 9839.58 440.297   2
   2  -7   4 9700.02 532.578  10
  -7   5   4 10665.2 592.943   4
  -2   7   4 9917.44 537.745   4
  -2   7   5 980.473 219.252   8
  -7   5   5 544.781 182.916   4
  -2   7   5 526.319 166.875   4
   2  -7   5 638.147 197.920   1
  -5  -2   5 216.114 132.464   6
   2  -7   5 977.352 188.143   6
   7  -5   5 732.343 209.503   1
  -7   5   5 761.746 217.036   5
   2  -7   5 480.295 147.062  10
  -2   7   6 1131.76 265.967   8
  -7   5   6 803.197 198.661   4
  -2   7   6 1257.42 248.814   4
   7  -5   6 1334.97 251.344   1
   5   2   6 1386.37 249.001   4
   2  -7   6 1123.87 236.979   1
  -5  -2   6 976.016 224.211   6
   2  -7   6 793.939 178.131   6
  -7   5   6 1097.92 264.388   5
   7  -5   6 863.952 187.730  10
   2  -7   6 1294.96 211.001  10
   7  -5   7-66.2222 164.831   1
  -2   7   7-108.151 193.024   8
  -7   5   7 318.211 178.742   4
  -2   7   7 7.98784 136.686   4
   5   2   7 81.9738 137.333   4
  -7   5   7 289.745 223.992   5
  -7   5   8 2084.15 318.769   5
   7  -4  -8 351.624 140.086   2
  -7   4  -7 1217.29 249.311   9
  -3   7  -7 1127.48 244.608   7
   7  -4  -7 1116.26 250.141   2
  -4  -3  -7 1238.94 262.243   3
   3  -7  -7 1343.30 278.898   3
  -4  -3  -7 1701.00 291.755   5
  -7   4  -7 1022.74 216.066   5
  -7   4  -6 1166.98 233.010   9
  -3   7  -6 1331.20 238.035   7
   7  -4  -6 1048.58 232.163   2
   4   3  -6 1637.20 279.513   2
  -4  -3  -6 1484.95 273.322   3
   3  -7  -6 1632.04 273.961   3
  -4  -3  -6 1511.02 257.065   5
  -7   4  -6 1215.85 213.816   5
   3  -7  -6 1090.74 195.471  10
  -7   4  -5 2266.71 306.339   9
  -3   7  -5 2218.86 292.818   7
   7  -4  -5 2284.80 301.786   2
   4   3  -5 2057.38 282.956   2
  -4  -3  -5 2159.59 291.962   3
   3  -7  -5 2101.33 293.208   3
  -4  -3  -5 2637.25 332.759   5
  -7   4  -5 2222.07 279.765   5
   3  -7  -5 1936.23 249.827  10
   4   3  -4 898.466 127.994   8
  -7   4  -4 640.831 198.499   9
  -3   7  -4 970.256 212.868   7
   7  -4  -4 827.485 192.288   2
   4   3  -4 1005.34 215.505   2
  -4  -3  -4 1060.16 215.179   3
   3  -7  -4 1196.08 211.164   3
  -4  -3  -4 982.179 203.258   5
  -7   4  -4 1046.68 208.325   5
  -3   7  -4 943.670 130.002   5
   3  -7  -4 743.608 173.279  10
  -7   4  -3 8055.86 509.462   9
   4   3  -3 7775.16 481.433   2
   4   3  -3 8478.02 369.646   8
  -4  -3  -3 7740.53 347.003   2
  -3   7  -3 8648.48 516.799   7
  -3   7  -3 7644.25 380.265   6
  -4  -3  -3 8228.03 495.600   3
  -3   7  -3 8041.29 383.564   3
   3  -7  -3 8714.84 488.992   3
   3  -7  -3 8339.55 300.022   1
  -4  -3  -3 8157.36 504.772   5
  -7   4  -3 7647.18 478.638   5
   4   3  -3 8831.77 404.086   5
  -3   7  -3 8373.81 385.937   5
   7  -4  -3 8020.45 495.165   2
   3  -7  -3 8332.59 489.287  10
   4   3  -2 2507.51 221.374   8
  -4  -3  -2 2289.16 208.965   2
  -3   7  -2 2186.58 268.889   7
   7  -4  -2 2590.29 282.010   2
  -3   7  -2 2241.66 209.952   6
   3  -7  -2 2358.89 252.277   3
   3  -7  -2 2337.39 177.465   1
  -3   7  -2 2118.82 205.299   3
  -7   4  -2 2949.03 315.151   5
  -4  -3  -2 2393.39 272.435   5
   3  -7  -2 2748.62 287.361  10
   4   3  -2 2415.31 128.298   4
   4   3  -2 2848.59 278.218   2
   4   3  -1 4831.09 317.244   8
  -4  -3  -1 4412.33 295.017   2
  -3   7  -1 5175.68 398.676   7
  -3   7  -1 4280.90 281.035   6
   3  -7  -1 4585.92 265.233   1
   3  -7  -1 4709.76 320.774   3
  -3   7  -1 4317.59 292.468   3
  -4  -3  -1 4936.87 360.576   5
  -7   4  -1 3850.94 340.676   5
   7  -4  -1 4298.53 358.243   2
  -3   7  -1 5051.95 292.880   4
   3  -7  -1 5170.27 382.489  10
   4   3  -1 4992.77 223.778   4
   4   3  -1 4710.17 344.378   2
   3  -7   0 2144.41 204.072   4
   4   3   0 2189.93 226.434   8
   7  -4   0 2288.22 283.123   2
  -3   7   0 1980.32 265.317   7
   3  -7   0 2429.38 215.030   1
   3  -7   0 1981.92 210.901   3
  -3   7   0 2133.90 211.940   6
  -7   4   0 2498.57 151.299   6
  -4  -3   0 2381.82 264.825   6
  -4  -3   0 2895.51 268.175   5
  -3   7   0 2170.73 225.474   3
  -7   4   0 2302.79 280.946   5
   4   3   0 2059.09 175.298   4
   4   3   0 2322.80 201.583   1
  -3   7   0 2493.35 217.968   4
   4   3   0 2542.73 244.808   2
   3  -7   0 1992.18 259.507  10
  -3   7   0 2212.88 208.327   9
   3  -7   1 4581.02 276.238   4
   4   3   1 4501.78 259.359   9
   4   3   1 4628.25 341.452   8
  -3   7   1 5818.72 418.464   7
   3  -7   1 4696.53 312.781   1
  -7   4   1 4388.07 241.665   6
  -4  -3   1 4566.37 362.745   6
   7  -4   1 4362.67 168.003   3
  -4  -3   1 4685.77 323.939   5
  -7   4   1 4169.19 359.271   5
   7  -4   1 3803.85 353.431   2
  -3   7   1 4509.83 296.183   2
   4   3   1 4242.03 247.948   1
  -7   4   1 3888.60 336.066   4
   7  -4   1 4284.60 365.453   1
   3  -7   1 4408.08 357.328  10
   4   3   1 4004.71 285.831   2
  -3   7   1 4490.07 306.293   4
   4   3   2 2354.03 267.230   8
   3  -7   2 2141.35 255.949  10
  -3   7   2 2211.56 277.821   7
  -7   4   2 2335.05 204.537   6
  -4  -3   2 2603.84 283.295   6
  -4  -3   2 2216.19 218.450   5
   7  -4   2 2321.10 280.902   1
   4   3   2 2359.34 175.640   1
  -3   7   2 2231.99 189.304   2
  -7   4   2 2656.03 295.298   5
   3  -7   2 1935.75 225.930   1
   4   3   2 2309.21 209.680   2
  -7   4   2 2849.70 291.241   4
  -3   7   2 2206.32 230.483   4
   3  -7   2 2193.52 182.943   4
   4   3   2 2155.19 167.814   9
  -3   7   3 7965.61 473.462   8
   4   3   3 8403.93 497.136   8
   3  -7   3 7120.77 438.089   1
   3  -7   3 7711.20 337.378   4
  -7   4   3 7893.70 411.467   6
  -4  -3   3 7615.32 491.177   6
   3  -7   3 8650.62 400.789   6
  -4  -3   3 8040.27 378.933   5
   4   3   3 7727.32 294.026   1
  -7   4   3 7831.09 488.836   5
   7  -4   3 7735.16 491.911   1
   4   3   3 7636.36 354.105   2
  -7   4   3 7482.03 470.213   4
   3  -7   3 8026.94 478.465  10
  -3   7   3 8298.81 468.326   4
  -3   7   4 1621.14 233.771   8
  -7   4   4 1282.71 217.534   4
   4   3   4 1452.85 241.605   8
  -3   7   4 1212.60 210.615   4
   4   3   4 1173.74 145.059   2
   4   3   4 1245.12 168.487   7
   4   3   4 1106.24 194.713   4
  -7   4   4 1055.76 187.413   6
  -4  -3   4 1418.66 246.756   6
   3  -7   4 883.867 152.672   6
   3  -7   4 1129.02 202.341   1
  -4  -3   4 1411.64 153.185   5
  -7   4   4 1397.28 236.599   5
   3  -7   4 997.397 195.910  10
   7  -4   4 1243.44 235.312   1
  -3   7   5 2053.96 266.961   8
  -7   4   5 2702.24 312.369   4
  -3   7   5 2440.36 296.120   4
   4   3   5 1759.59 257.712   4
   3  -7   5 2130.63 224.712   6
  -7   4   5 2196.41 287.759   6
  -4  -3   5 1789.54 285.096   6
   3  -7   5 2103.92 285.051   1
   7  -4   5 1720.61 263.158   1
  -7   4   5 2404.64 307.228   5
   3  -7   5 2098.00 252.606  10
  -3   7   6 1269.38 233.317   8
  -7   4   6 1374.03 250.895   4
  -3   7   6 1352.46 248.480   4
   4   3   6 1146.00 221.436   4
   7  -4   6 1496.57 260.874   1
  -7   4   6 1201.13 238.692   6
  -4  -3   6 1066.94 231.130   6
   3  -7   6 1349.46 253.577   1
  -7   4   6 986.583 229.382   5
   3  -7   6 1230.49 206.727  10
   7  -4   7 1491.85 261.022   1
  -3   7   7 895.726 225.988   8
  -7   4   7 1201.88 244.937   4
  -3   7   7 1681.54 290.009   4
   4   3   7 1370.78 264.832   4
  -7   4   7 1757.81 291.504   6
   3  -7   7 1355.36 275.423   1
  -4  -3   7 1424.53 264.678   6
  -7   4   7 1408.07 284.431   5
  -3   7   8 498.061 181.168   8
  -7   3  -8 357.838 199.696   9
   3   4  -8 670.337 216.696   7
   7  -3  -8 161.100 144.650   2
  -7   3  -8 284.401 170.433   5
  -7   3  -7 1263.28 250.765   9
  -4   7  -7 1008.73 211.182   7
   7  -3  -7 1570.16 284.493   2
  -3  -4  -7 710.078 212.721   3
   4  -7  -7 1091.13 279.197   3
  -7   3  -7 1603.09 269.650   5
  -7   3  -6 1398.68 247.421   9
  -4   7  -6 1129.64 224.986   7
   7  -3  -6 1500.37 271.135   2
  -3  -4  -6 1383.80 252.207   3
   3   4  -6 1078.26 232.342   2
   4  -7  -6 1171.67 244.810   3
  -3  -4  -6 1548.46 263.283   5
  -7   3  -6 1221.91 228.656   5
   4  -7  -6 1447.28 217.767  10
  -7   3  -5 2220.90 287.181   9
   3   4  -5 1949.94 195.397   8
  -4   7  -5 2119.71 290.679   7
   7  -3  -5 1967.49 280.951   2
  -3  -4  -5 1861.08 293.421   3
   3   4  -5 2060.96 279.871   2
   4  -7  -5 2118.66 289.034   3
  -3  -4  -5 2349.72 308.663   5
  -7   3  -5 2324.39 288.388   5
   4  -7  -5 1986.88 246.354  10
  -7   3  -4 1132.01 211.207   9
   3   4  -4 979.335 147.674   8
   4  -7  -4 1169.66 150.090   1
  -4   7  -4 1224.31 218.401   7
   7  -3  -4 1238.40 225.892   2
  -3  -4  -4 1138.85 232.264   3
   3   4  -4 1103.53 209.319   2
   4  -7  -4 1266.30 220.650   3
  -3  -4  -4 1194.77 225.207   5
  -7   3  -4 1257.08 237.957   5
  -4   7  -4 1166.97 162.224   5
   4  -7  -4 1128.51 200.459  10
   3   4  -3 8771.11 411.435   8
   3   4  -3 8237.29 484.420   2
  -4   7  -3 7557.53 484.298   7
  -3  -4  -3 8391.51 508.430   3
   4  -7  -3 7911.61 457.374   3
  -4   7  -3 7729.44 322.151   3
  -3  -4  -3 8375.33 509.795   5
  -7   3  -3 7846.75 499.484   5
   3   4  -3 7722.39 362.040   5
  -4   7  -3 7460.82 387.893   5
   4  -7  -3 8386.84 375.012   1
   7  -3  -3 7969.65 501.387   2
   4  -7  -3 7940.22 476.014  10
   3   4  -2 2550.89 263.027   2
   3   4  -2 2094.25 215.950   8
  -4   7  -2 2716.69 313.413   7
  -4   7  -2 2155.02 170.619   6
   7  -3  -2 2094.00 265.940   2
  -4   7  -2 2393.70 187.809   3
  -3  -4  -2 1988.14 252.799   3
   3   4  -2 2243.86 216.202   5
   4  -7  -2 2210.14 228.022   3
   4  -7  -2 2259.38 203.179   1
  -4   7  -2 2380.45 233.325   5
  -3  -4  -2 2209.09 269.687   5
  -7   3  -2 2206.28 268.337   5
   4  -7  -2 2737.29 284.688  10
  -4   7  -2 2567.08 268.979   9
   3   4  -1 4219.88 314.517   2
   3   4  -1 4555.54 163.655   4
   3   4  -1 4270.89 274.756   1
   3   4  -1 4887.46 328.682   8
  -4   7  -1 4367.80 377.677   7
  -4   7  -1 4275.58 246.243   6
   4  -7  -1 4181.86 285.093   3
  -3  -4  -1 4573.44 344.481   5
  -4   7  -1 4284.47 265.296   3
   4  -7  -1 4477.72 294.074   1
  -7   3  -1 4768.20 381.204   5
   7  -3  -1 3865.54 339.853   2
  -4   7  -1 4232.03 293.698   4
   4  -7  -1 4606.76 362.744  10
   3   4  -1 4590.38 162.684   4
  -4   7  -1 4936.46 338.604   9
  -4   7   0 2528.50 236.413   9
   3   4   0 2341.65 187.492   1
   3   4   0 2553.78 255.657   8
   3   4   0 2132.60 155.468   4
  -7   3   0 1864.48 198.028   8
   7  -3   0 2049.90 261.351   2
  -4   7   0 2661.89 311.577   7
   7  -3   0 2370.81 184.060   3
   4  -7   0 2680.07 216.923   3
  -4   7   0 2390.62 197.106   6
  -7   3   0 2175.17 171.292   6
   4  -7   0 2463.24 237.241   1
  -3  -4   0 2169.23 256.402   6
  -3  -4   0 2335.99 240.698   5
  -4   7   0 2457.98 226.634   3
  -7   3   0 1701.42 245.046   5
   4  -7   0 2630.41 279.611  10
  -4   7   0 2703.50 248.561   4
   3   4   0 2225.57 215.558   2
   3   4   1 4774.55 229.951   1
   3   4   1 5078.51 362.553   8
   3   4   1 4392.87 257.776   4
  -7   3   1 4924.12 269.261   8
  -7   3   1 4879.40 276.684   6
  -3  -4   1 4576.16 372.536   6
  -4   7   1 4619.96 294.482   6
   4  -7   1 4243.75 311.846   1
   7  -3   1 4426.79 226.611   3
  -3  -4   1 4801.19 319.653   5
  -7   3   1 5325.76 395.917   5
   7  -3   1 4224.84 360.560   2
  -4   7   1 4249.29 302.254   2
   4  -7   1 3894.79 343.019  10
  -4   7   1 4450.06 317.581   4
   3   4   1 4559.96 282.176   2
   3   4   2 2516.39 132.297   1
   3   4   2 2312.81 215.085   4
  -7   3   2 2328.01 155.498   8
  -7   3   2 2432.63 269.267   4
   3   4   2 2305.42 270.718   8
   4  -7   2 2453.97 259.702   1
   3   4   2 2437.16 247.012   7
   7  -3   2 2328.35 282.030   2
  -7   3   2 2562.62 227.629   6
  -4   7   2 2082.66 200.065   2
  -3  -4   2 3007.08 312.357   6
   7  -3   2 2640.21 297.299   1
   7  -3   2 2497.37 156.050   3
  -3  -4   2 2086.24 202.136   5
  -7   3   2 2549.95 282.959   5
   4  -7   2 3154.25 305.494  10
   3   4   2 2608.98 201.111   2
  -4   7   2 2834.69 276.811   4
   4  -7   2 2505.68 222.642   4
  -4   7   3 7430.80 443.542   8
   3   4   3 7742.21 423.612   4
   3   4   3 8234.18 498.715   8
   3   4   3 7823.48 414.060   7
   4  -7   3 7759.28 471.862   1
  -7   3   3 8251.72 435.319   6
  -3  -4   3 8587.84 515.876   6
  -3  -4   3 8175.62 357.475   5
  -7   3   3 7817.91 481.898   5
   7  -3   3 7581.23 485.510   1
   3   4   3 7973.42 309.170   2
  -7   3   3 7628.70 461.779   4
   4  -7   3 7591.93 465.453  10
  -4   7   3 7855.03 350.373   2
  -4   7   3 8022.66 471.438   4
  -4   7   4 1349.64 211.523   8
   7  -3   4 892.266 199.940   1
  -7   3   4 903.335 193.160   4
   3   4   4 984.905 212.866   8
  -4   7   4 1103.30 217.531   4
   3   4   4 1184.82 171.887   7
   3   4   4 1051.27 188.329   4
  -7   3   4 612.499 162.270   6
  -3  -4   4 840.898 202.886   6
   4  -7   4 950.862 129.437   6
  -3  -4   4 1100.94 121.128   5
  -7   3   4 874.106 193.966   5
   4  -7   4 812.542 191.344   1
   4  -7   4 1138.36 204.968  10
  -4   7   5 2215.74 260.422   8
  -7   3   5 1940.66 265.798   4
   3   4   5 2169.03 318.082   8
  -4   7   5 2489.07 318.784   4
   3   4   5 2216.20 282.143   4
  -7   3   5 2553.14 298.350   6
  -3  -4   5 2632.42 323.003   6
   7  -3   5 2202.13 284.635   1
   4  -7   5 2082.65 287.943   1
  -7   3   5 1858.63 253.597   5
   4  -7   5 2283.13 257.278  10
  -4   7   6 1243.50 211.306   8
  -7   3   6 1127.93 231.663   4
   3   4   6 1318.72 277.883   8
  -4   7   6 1663.68 274.610   4
   3   4   6 1374.44 248.996   4
   7  -3   6 1219.28 241.782   1
  -7   3   6 1264.91 238.403   6
  -3  -4   6 1181.96 251.365   6
   4  -7   6 1193.26 232.325   1
  -7   3   6 1324.48 236.426   5
   4  -7   6 1503.43 221.940  10
   7  -3   7 1023.02 224.757   1
  -4   7   7 929.667 200.582   8
  -7   3   7 1314.28 268.509   4
  -4   7   7 933.504 242.652   4
   3   4   7 1123.87 238.498   4
  -7   3   7 1126.53 246.874   6
  -3  -4   7 1248.64 270.268   6
  -7   3   7 1261.52 235.855   5
  -7   3   8 400.813 182.031   4
   7  -3   8 618.955 202.124   1
  -7   2  -8 1631.51 278.587   9
   2   5  -8 2171.44 314.875   7
  -7   2  -8 2110.58 307.287   5
  -7   2  -7 275.629 164.711   9
   2   5  -7-184.914 174.797   7
   7  -2  -7-155.106 179.171   2
   5  -7  -7 170.587 180.186   3
  -7   2  -7 155.442 139.784   5
  -7   2  -6 1160.34 234.624   9
   2   5  -6 896.486 210.409   7
   7  -2  -6 1113.29 246.736   2
  -2  -5  -6 968.074 234.399   3
   2   5  -6 1328.56 252.617   2
   5  -7  -6 1283.62 260.118   3
  -7   2  -6 1685.16 279.399   5
   5  -7  -6 1275.29 213.386  10
   2   5  -5 573.775 194.691   7
   7  -2  -5 602.787 175.794   2
  -2  -5  -5 573.660 187.542   3
   2   5  -5 684.868 171.906   2
   5  -7  -5 534.472 185.628   3
  -7   2  -5 535.408 183.346   5
  -5   7  -5 675.601 139.835   5
   5  -7  -5 937.763 184.525  10
   2   5  -4 9604.49 556.227   2
   2   5  -4 9704.61 569.629   7
  -2  -5  -4 9831.25 587.979   3
   5  -7  -4 10251.5 553.135   3
  -2  -5  -4 9691.41 577.295   5
  -7   2  -4 9739.22 575.943   5
  -5   7  -4 10128.3 471.231   5
   5  -7  -4 9672.59 534.527  10
   7  -2  -4 9900.05 578.997   2
  -5   7  -3 684.715 173.045   9
   2   5  -3 630.178 144.244   8
   2   5  -3 768.484 188.743   7
   7  -2  -3 835.368 199.957   2
  -2  -5  -3 717.286 197.631   3
   2   5  -3 518.403 147.115   2
   5  -7  -3 643.373 167.162   3
  -2  -5  -3 590.580 174.532   5
   5  -7  -3 516.093 139.422   1
  -7   2  -3 859.542 198.992   5
  -5   7  -3 400.750 128.756   5
   5  -7  -3 683.876 177.990  10
   2   5  -2 4971.48 343.694   8
   2   5  -2 4827.15 350.524   2
   2   5  -2 4792.08 381.992   7
  -2  -5  -2 4931.34 392.872   3
   5  -7  -2 4883.26 320.447   3
  -2  -5  -2 4969.27 380.502   5
  -7   2  -2 5532.30 416.241   5
   2   5  -2 4449.05 294.358   5
  -5   7  -2 5135.77 361.248   5
   5  -7  -2 5315.37 339.674   1
   7  -2  -2 4840.72 396.479   2
   5  -7  -2 4606.89 377.115  10
  -5   7  -2 5101.86 384.235   9
  -5   7  -1 669.303 166.592   9
  -5   7  -1 710.243 156.427   4
   2   5  -1 879.799 161.167   8
   2   5  -1 735.049 183.481   7
   7  -2  -1 405.594 167.533   2
  -5   7  -1 646.980 86.3312   6
   2   5  -1 576.243 129.338   2
   5  -7  -1 559.248 122.709   3
   5  -7  -1 602.892 150.033   1
  -2  -5  -1 582.079 147.853   5
  -7   2  -1 576.162 163.222   5
   2   5  -1 477.248 112.368   1
  -5   7  -1 766.868 174.434   5
   5  -7  -1 752.907 184.885  10
   2   5   0 7153.46 259.408   4
  -5   7   0 7921.30 432.743   9
   2   5   0 7044.37 367.838   2
   2   5   0 8175.23 453.561   8
  -7   2   0 7010.24 356.445   8
   2   5   0 8133.12 468.324   7
   2   5   0 6999.24 302.586   1
   7  -2   0 6510.76 339.742   3
   5  -7   0 7314.36 311.988   3
  -5   7   0 7097.86 294.362   6
  -7   2   0 7013.30 344.754   6
  -2  -5   0 7365.80 412.785   5
   5  -7   0 7365.86 421.956   1
  -7   2   0 7018.71 450.060   5
   7  -2   0 6500.37 442.024   2
   5  -7   0 6817.80 449.085  10
  -5   7   0 7271.61 421.962   4
   2   5   1 446.226 157.210   8
  -7   2   1 651.346 109.113   8
   2   5   1 545.243 76.3087   1
  -5   7   1 564.502 150.439   4
   2   5   1 741.687 160.708   7
   2   5   1 709.038 109.618   4
   7  -2   1 930.524 197.980   2
   7  -2   1 762.358 132.555   6
  -7   2   1 302.209 104.907   6
  -2  -5   1 889.898 197.328   6
  -5   7   1 572.688 110.619   6
   2   5   1 612.222 115.742   2
   7  -2   1 714.032 126.625   3
  -2  -5   1 478.835 122.098   5
   5  -7   1 712.574 166.966   1
  -7   2   1 621.705 171.614   5
   5  -7   1 555.720 163.474  10
   7  -2   2 4405.99 366.954   1
   2   5   2 5000.34 304.314   4
  -7   2   2 5109.64 209.351   8
   2   5   2 5549.00 402.738   8
   2   5   2 5364.84 366.528   7
   7  -2   2 4765.51 272.888   6
  -7   2   2 5868.69 361.593   6
  -2  -5   2 5876.07 420.651   6
   5  -7   2 5432.39 391.857   1
   7  -2   2 5681.02 291.543   3
  -7   2   2 5475.49 398.426   5
   7  -2   2 5240.77 395.463   2
   5  -7   2 5123.19 392.521  10
  -5   7   2 5727.26 405.308   4
   2   5   2 5394.28 262.196   2
  -7   2   3 857.510 178.329   4
   2   5   3 554.794 176.094   8
  -5   7   3 754.708 175.629   4
   7  -2   3 455.692 158.267   2
   2   5   3 933.760 172.431   7
   5  -7   3 658.300 180.616   1
   2   5   3 742.171 157.001   4
   7  -2   3 886.501 200.535   1
   2   5   3 605.604 78.5974   2
  -7   2   3 673.399 162.680   6
  -2  -5   3 663.409 184.925   6
  -7   2   3 618.254 163.917   5
  -2  -5   3 652.871 147.042   1
   5  -7   3 668.972 160.539  10
  -5   7   4 9324.20 484.467   8
   2   5   4 10055.4 524.071   4
   2   5   4 9498.36 579.960   8
  -5   7   4 9427.71 558.532   4
   2   5   4 9693.33 465.406   7
   5  -7   4 10053.5 582.344   1
  -7   2   4 10309.7 548.463   6
  -2  -5   4 9762.97 569.208   6
   7  -2   4 8768.18 521.558   1
  -7   2   4 9479.85 525.486   5
  -2  -5   4 9782.97 521.261   1
   5  -7   4 9219.21 525.099  10
  -7   2   4 10059.6 526.097   4
  -5   7   5 563.443 150.125   8
  -7   2   5 540.540 170.976   4
   2   5   5 1091.56 246.797   8
  -5   7   5 353.976 148.274   4
   2   5   5 441.563 126.433   7
   2   5   5 447.297 149.169   4
  -7   2   5 673.170 191.517   6
  -2  -5   5 524.909 169.689   6
   7  -2   5 546.055 166.333   1
  -7   2   5 477.814 162.167   5
  -2  -5   5 645.935 192.368   1
   5  -7   5 737.471 212.919   1
   5  -7   5 864.932 195.635  10
  -5   7   6 946.599 176.509   8
  -7   2   6 1292.30 227.375   4
   2   5   6 1217.50 252.692   8
  -5   7   6 1235.99 247.186   4
   2   5   6 1497.05 244.189   4
   7  -2   6 1229.32 230.338   1
  -7   2   6 1268.09 251.820   6
  -2  -5   6 1017.66 243.687   6
   5  -7   6 633.185 190.630   1
  -7   2   6 1262.71 207.125   5
  -2  -5   6 1167.10 232.437   1
   5  -7   6 911.953 183.792  10
   7  -2   7 107.049 125.895   1
  -7   2   7 199.078 165.343   4
   2   5   7 86.2771 160.764   4
  -7   2   7 52.8208 123.495   6
  -2  -5   7-3.57584 148.250   6
  -2  -5   7 206.462 145.000   1
   7  -2   8 1436.13 259.164   1
   1   6  -7 663.234 205.470   7
   6  -7  -7 843.829 267.983   3
  -7   1  -7 1055.11 244.543   5
   1   6  -6 621.034 189.230   7
   7  -1  -6 1182.11 247.858   2
  -1  -6  -6 752.956 225.219   3
   1   6  -6 575.901 184.821   2
   6  -7  -6 721.764 218.210   3
  -7   1  -6 709.279 206.150   5
   6  -7  -6 769.953 185.123  10
  -6   7  -5 2409.65 330.110   9
   1   6  -5 1911.70 278.169   7
   7  -1  -5 2256.83 311.622   2
  -1  -6  -5 2426.59 324.380   3
   1   6  -5 1767.10 275.879   2
   6  -7  -5 2491.72 301.463   3
  -7   1  -5 2072.02 292.917   5
  -6   7  -5 1828.76 226.621   5
   6  -7  -5 2603.48 296.174  10
  -6   7  -4 2272.87 306.442   9
   1   6  -4 2059.78 294.723   7
   7  -1  -4 2241.02 306.396   2
  -1  -6  -4 2612.48 336.397   3
   1   6  -4 1864.79 261.692   2
   6  -7  -4 2188.04 269.834   3
  -7   1  -4 2230.43 291.452   5
  -6   7  -4 2098.33 247.974   5
   6  -7  -4 2081.27 277.669  10
   1   6  -3 9183.59 525.328   2
   1   6  -3 9202.07 557.507   7
  -1  -6  -3 9210.29 560.110   3
   6  -7  -3 8701.76 465.090   3
  -7   1  -3 9376.36 569.928   5
  -6   7  -3 8735.97 484.233   5
   6  -7  -3 9573.06 544.972  10
   7  -1  -3 9252.41 569.005   2
  -6   7  -3 10669.9 598.151   9
  -6   7  -2 1640.03 246.568   9
   1   6  -2 2320.47 260.173   8
   6  -7  -2 1742.32 244.056   1
   1   6  -2 2222.33 279.116   7
   7  -1  -2 1836.44 262.220   2
  -1  -6  -2 2222.74 285.538   3
   1   6  -2 1801.33 229.776   2
   6  -7  -2 1895.37 202.562   3
  -7   1  -2 2348.57 297.015   5
  -6   7  -2 1670.92 240.015   5
   6  -7  -2 1732.43 246.614  10
  -1  -6  -2 2177.27 276.679  10
  -6   7  -1 4015.01 347.939   9
   1   6  -1 4519.43 352.695   8
   1   6  -1 4553.22 323.963   2
   1   6  -1 4434.08 373.008   7
   1   6  -1 4143.62 269.024   1
   6  -7  -1 4426.78 258.572   3
  -7   1  -1 4385.67 382.321   5
  -6   7  -1 4223.35 353.539   5
   6  -7  -1 4590.74 361.196   1
   7  -1  -1 4376.84 373.026   2
   6  -7  -1 4422.98 374.849  10
  -1  -6  -1 3482.70 332.317  10
   1   6   0 2387.61 272.189   8
  -7   1   0 2051.75 206.269   8
   1   6   0 2484.02 224.637   2
  -6   7   0 2082.56 255.328   4
   1   6   0 2216.03 268.561   7
   7  -1   0 2268.52 285.519   2
   6  -7   0 2215.28 154.811   3
  -7   1   0 1796.04 213.232   6
   1   6   0 2088.99 167.174   1
   6  -7   0 2317.76 265.329   1
  -7   1   0 1885.35 247.848   5
  -6   7   0 2034.28 260.817   5
  -1  -6   0 2727.99 298.652  10
   6  -7   0 2021.42 267.582  10
   1   6   0 2186.93 144.746   4
   1   6   1 4074.09 255.556   2
  -7   1   1 3487.72 226.135   8
   1   6   1 3501.97 328.067   8
   1   6   1 4207.16 352.356   7
  -7   1   1 3629.79 295.805   6
  -6   7   1 3724.97 228.394   6
  -1  -6   1 3690.53 343.014   6
   6  -7   1 3724.58 338.725   1
  -7   1   1 3476.37 329.714   5
  -6   7   1 3532.59 335.092   5
  -1  -6   1 4033.92 252.663   1
   7  -1   1 3756.37 343.235   2
   6  -7   1 4013.85 359.016  10
  -6   7   1 4014.60 341.997   4
  -1  -6   1 3521.75 331.730  10
   1   6   1 3797.86 236.679   4
   1   6   2 2247.43 213.066   4
   1   6   2 2584.94 296.704   8
  -6   7   2 2218.82 282.342   4
   1   6   2 2517.61 271.095   7
   7  -1   2 1955.18 259.228   2
  -7   1   2 2352.98 259.779   6
  -1  -6   2 2665.80 303.504   6
   6  -7   2 2324.46 292.088   1
  -7   1   2 1955.08 257.306   5
  -1  -6   2 2443.56 222.876   1
   6  -7   2 2029.15 271.617  10
   1   6   2 2504.15 172.980   2
  -1  -6   2 2306.73 280.711  10
   1   6   3 8941.11 457.052   4
   1   6   3 9035.33 551.637   8
   1   6   3 9728.76 508.462   7
  -7   1   3 8932.06 504.982   6
  -1  -6   3 9286.06 544.711   6
   6  -7   3 8882.62 548.899   1
  -7   1   3 9305.02 517.774   5
   7  -1   3 8220.36 492.921   1
   7  -1   3 8455.25 504.266   2
  -1  -6   3 9819.09 489.127   1
   6  -7   3 9289.62 542.952  10
  -6   7   3 8745.59 536.951   4
  -7   1   4 1719.46 222.845   4
  -6   7   4 1981.38 221.647   8
   1   6   4 2453.97 309.146   8
  -6   7   4 2068.39 294.776   4
   1   6   4 2105.60 251.340   4
   1   6   4 2147.35 246.883   7
   6  -7   4 1675.09 258.383   1
   7  -1   4 2046.23 256.981   1
  -7   1   4 2024.62 271.220   6
  -1  -6   4 2500.54 306.447   6
  -7   1   4 2016.37 257.152   5
   6  -7   4 1780.88 250.025  10
  -1  -6   4 1694.33 230.247   1
  -1  -6   5 2450.34 317.261   1
   6  -7   5 2347.39 321.816   1
  -7   1   5 1970.31 244.120   4
  -6   7   5 2088.49 232.624   8
   1   6   5 2097.48 301.777   8
  -6   7   5 2273.02 322.634   4
   1   6   5 1821.67 254.973   4
   1   6   5 2366.22 245.772   7
  -7   1   5 2745.90 328.425   6
  -1  -6   5 1408.85 259.157   6
   7  -1   5 2192.73 274.973   1
  -7   1   5 2377.63 269.380   5
   6  -7   5 2262.27 274.625  10
  -7   1   6 724.115 164.566   4
   1   6   6 857.128 226.824   8
  -6   7   6 743.052 207.929   4
   1   6   6 745.318 203.082   4
   7  -1   6 973.149 216.934   1
  -7   1   6 737.605 197.716   6
  -1  -6   6 805.514 224.607   6
   6  -7   6 495.386 155.928  10
   6  -7   6 845.274 229.513   1
  -1  -6   6 1027.75 229.746   1
  -1  -6   7 408.463 180.108   6
   0   7  -6-90.6205 162.470   7
   7  -7  -6 68.6897 158.885   3
  -7   0  -6 5.54568 137.739   5
   7  -7  -6 281.575 146.063  10
  -7   7  -5 2394.60 343.948   9
   7  -7  -5 2092.02 255.880   2
   0   7  -5 2290.88 313.242   7
   7   0  -5 1785.98 304.886   2
   0  -7  -5 2098.60 323.086   3
   0   7  -5 2180.86 300.212   2
   7  -7  -5 1660.59 293.082   3
  -7   0  -5 2212.29 321.623   5
  -7   7  -5 1927.13 258.452   5
   7  -7  -5 1666.50 267.242  10
  -7   7  -4 553.564 185.212   9
   7  -7  -4 427.163 151.576   2
   0   7  -4 816.071 210.030   7
   7   0  -4 861.443 222.075   2
   0  -7  -4 865.355 219.431   3
   7  -7  -4 599.888 169.094   3
   0   7  -4 836.289 196.889   2
  -7   0  -4 728.934 201.691   5
  -7   7  -4 499.525 158.668   5
   7  -7  -4 831.434 204.754  10
   0  -7  -4 720.480 184.702  10
  -7   7  -3 3108.20 354.055   9
   0   7  -3 3207.52 327.922   2
   0   7  -3 3235.77 349.936   7
   0  -7  -3 4027.80 392.248   3
   7  -7  -3 3205.21 291.230   3
  -7   7  -3 2921.88 311.352   5
  -7   0  -3 2574.01 321.086   5
   7  -7  -3 3518.65 361.670  10
   7   0  -3 3440.32 365.565   2
   0  -7  -3 3102.69 333.624  10
  -7   7  -2 6984.45 491.854   9
   0   7  -2 6099.02 411.519   2
   0   7  -2 6002.42 460.502   7
   0  -7  -2 5750.20 444.368   3
   7  -7  -2 6334.25 349.083   3
  -7   0  -2 5347.88 434.985   5
  -7   7  -2 5736.73 424.966   5
   7  -7  -2 6693.15 481.730  10
   7   0  -2 6023.41 458.305   2
   0  -7  -2 5549.37 439.519  10
   0   7  -1 3391.48 331.693   8
   0   7  -1 2744.93 260.643   2
   0   7  -1 2916.48 330.672   7
   7  -7  -1 2534.97 301.338   1
   7  -7  -1 3620.26 223.919   3
  -7   7  -1 3280.98 334.147   5
  -7   0  -1 3082.91 335.684   5
   7  -7  -1 3297.61 349.212  10
   7   0  -1 3439.13 352.414   2
   0  -7  -1 2844.54 324.187  10
  -7   7   0 584.791 174.696   4
   0   7   0 591.855 177.486   8
   0   7   0 600.269 96.8037   4
   7  -7   0 344.978 139.144   1
   0   7   0 339.161 151.903   7
   7   0   0 304.818 158.065   2
  -7   0   0 567.992 154.031   6
   0   7   0 253.901 101.453   2
  -7   0   0 297.851 139.964   5
  -7   7   0 467.860 180.033   5
   0  -7   0 557.735 94.8342   1
   7  -7   0 567.257 188.898  10
   0  -7   0 603.278 176.115  10
   0   7   1 3395.10 340.169   8
   0   7   1 3011.91 228.776   2
   0   7   1 2669.80 311.765   7
   7   0   1 2897.26 312.426   2
  -7   0   1 3054.60 300.078   6
   7  -7   1 2816.89 320.397   1
  -7   0   1 2882.64 306.382   5
   0  -7   1 3112.31 231.890   1
  -7   7   1 2844.10 325.969   5
   7  -7   1 3342.04 349.466  10
  -7   7   1 2848.41 316.177   4
   0  -7   1 3619.99 349.560  10
   0   7   1 3316.28 237.412   4
   0   7   2 6150.88 457.871   8
   0   7   2 5739.94 432.850   7
  -7   0   2 5447.96 407.693   6
   0  -7   2 5874.32 441.518   6
   7  -7   2 5703.46 450.966   1
  -7   0   2 6307.88 444.546   5
  -7   7   2 6944.08 498.223   5
   7   0   2 5487.97 413.976   2
   0  -7   2 5574.12 340.326   1
   7  -7   2 5945.74 453.799  10
  -7   7   2 5745.49 439.671   4
   0  -7   2 5809.62 444.306  10
   0   7   2 5583.04 342.709   4
   0   7   3 3295.95 355.173   8
   0   7   3 3496.19 333.023   7
   7   0   3 2717.01 296.789   2
   0  -7   3 3600.59 358.383   6
  -7   0   3 3006.48 326.923   6
  -7   0   3 3132.58 316.343   5
   7  -7   3 3065.57 346.850   1
   7   0   3 2608.17 278.689   1
  -7   7   3 3368.82 368.757   5
   7  -7   3 3419.51 355.318  10
   0  -7   3 2998.09 284.500   1
  -7   7   3 3425.53 348.633   4
   0  -7   3 3433.21 345.061  10
   0   7   3 3123.96 285.707   4
   0  -7   4 592.332 168.981   1
  -7   7   4 576.832 137.114   8
   0   7   4 600.395 207.250   8
  -7   7   4 1216.32 238.771   4
   0   7   4 824.521 173.713   4
   0   7   4 637.159 180.114   7
   7   0   4 214.792 113.763   1
  -7   0   4 835.721 218.522   6
   7  -7   4 853.197 224.441   1
   0  -7   4 367.189 172.299   6
  -7   0   4 668.219 156.081   5
  -7   7   4 879.556 245.140   5
   7  -7   4 1053.77 226.046  10
   0  -7   4 595.614 182.178  10
   0  -7   5 1813.51 299.415   1
   0   7   5 2319.58 327.203   8
  -7   7   5 2270.11 323.331   4
   7  -7   5 1767.31 303.160   1
   0   7   5 2538.48 303.435   4
   0   7   5 2167.44 264.209   7
  -7   0   5 1646.76 274.483   6
   0  -7   5 2075.29 291.956   6
   7   0   5 2009.95 250.780   1
  -7   0   5 1662.30 225.600   5
  -7   7   5 2117.33 322.517   5
   7  -7   5 1934.99 276.736  10
   0  -7   6 159.071 144.252   1
   0   7   6 497.746 213.432   8
   0   7   6 151.985 130.906   4
  -7   0   6 103.752 169.565   6
   0  -7   6-102.468 133.630   6
   7  -7   6 233.062 149.495  10
   0  -7   7 1211.60 267.776   6
   8  -7  -6 1450.33 287.105   3
   8  -7  -6 1641.91 270.637  10
   1  -8  -6 1826.24 285.978  10
   8  -7  -5-132.992 166.829   2
  -1   8  -5 141.201 137.175   7
  -1   8  -5-297.929 150.275   2
   8  -7  -5-36.2848 173.143   3
  -8   7  -5-214.693 136.681   5
   8  -7  -5-88.9433 158.715  10
   1  -8  -5-198.747 171.507  10
  -8   7  -4 2054.69 326.955   9
   8  -7  -4 2194.10 303.726   2
  -1   8  -4 2572.01 352.305   7
   7   1  -4 1689.41 291.220   2
   1  -8  -4 1326.00 270.602   3
   8  -7  -4 2011.70 271.674   3
  -1   8  -4 2091.27 291.057   2
  -7  -1  -4 1830.88 294.690   5
  -8   7  -4 1832.38 270.091   5
   8  -7  -4 1585.85 273.663  10
   1  -8  -4 2127.69 302.345  10
  -8   7  -3 282.261 178.115   9
   8  -7  -3 9.42257 154.500   2
  -1   8  -3-173.959 160.313   7
   7   1  -3 11.3774 123.397   2
   1  -8  -3-52.2217 158.625   3
   8  -7  -3 156.046 121.342   3
  -1   8  -3-20.9331 130.472   2
  -7  -1  -3 91.5693 146.565   5
  -8   7  -3 45.7191 134.270   5
   8  -7  -3 131.235 168.735  10
   1  -8  -3 25.9670 122.992  10
  -1   8  -2 5045.91 396.138   2
  -1   8  -2 4739.34 433.980   7
   1  -8  -2 5025.73 422.973   3
  -7  -1  -2 5037.04 449.336   5
  -8   7  -2 4495.12 410.504   5
   8  -7  -2 5638.32 476.034  10
   7   1  -2 5676.65 470.224   2
   1  -8  -2 4900.89 428.874  10
   8  -7  -1 294.682 172.937   1
  -1   8  -1 533.592 181.235   7
   7   1  -1 453.916 165.968   2
  -1   8  -1 366.762 118.827   2
  -7  -1  -1 121.939 138.162   5
  -8   7  -1 611.005 182.970   5
   1  -8  -1 580.388 179.792  10
  -1   8   0 2961.30 340.830   8
  -1   8   0 2376.07 238.762   2
  -1   8   0 2187.26 296.174   7
   7   1   0 2606.17 307.568   2
  -7  -1   0 3171.13 322.771   6
  -7  -1   0 2851.59 336.055   5
   8  -7   0 2316.70 309.426   1
  -8   7   0 2924.79 338.665   5
   1  -8   0 2360.97 310.358  10
  -1   8   1 300.386 174.689   8
  -8   7   1 362.391 151.765   4
   1  -8   1 463.847 105.828   1
  -1   8   1 418.147 118.454   4
  -1   8   1 310.953 143.769   7
   7   1   1 360.054 164.554   2
  -7  -1   1 385.350 164.561   6
  -1   8   1 136.797 85.6249   2
  -7  -1   1 286.403 151.032   5
   8  -7   1 277.241 182.690   1
  -8   7   1 326.039 196.903   5
   1  -8   1 447.619 164.545  10
  -1   8   2 4775.03 423.119   8
  -1   8   2 5719.74 456.451   7
  -1   8   2 5164.75 349.806   4
  -7  -1   2 5743.32 445.588   6
  -7  -1   2 4869.65 404.166   5
   8  -7   2 5348.83 466.655   1
  -8   7   2 5057.92 450.833   5
   7   1   2 4949.50 398.932   2
   8  -7   2 5694.29 468.856  10
  -8   7   2 5035.80 448.321   4
   1  -8   2 4667.54 329.580   1
   1  -8   2 4751.15 425.969  10
  -1   8   3 44.4759 141.373   8
  -8   7   3 158.058 148.270   4
   1  -8   3-57.9570 101.502   1
  -1   8   3-115.885 105.845   4
   7   1   3-7.41189 120.468   2
  -1   8   3 132.779 142.800   7
  -7  -1   3 36.9642 116.967   6
   1  -8   3-114.901 138.065   6
   7   1   3-36.4709 107.072   1
  -7  -1   3-4.38620 123.992   5
  -8   7   3 237.796 162.444   5
   8  -7   3 113.130 150.683   1
   8  -7   3 33.8723 148.049  10
   1  -8   3-158.845 135.180  10
  -1   8   4 2009.00 314.826   8
  -8   7   4 2066.36 315.231   4
   1  -8   4 2344.31 308.843   1
  -1   8   4 1970.90 266.170   4
   7   1   4 1813.31 256.714   2
  -1   8   4 2206.21 293.113   7
  -7  -1   4 1876.16 286.633   6
   1  -8   4 1855.94 270.108   6
   8  -7   4 1507.03 276.388   1
  -7  -1   4 1815.30 232.979   5
  -8   7   4 2237.61 348.242   5
   8  -7   4 1777.72 292.303  10
   1  -8   4 1670.83 287.003  10
  -1   8   5 389.817 179.072   8
   1  -8   5 221.344 166.325   1
  -1   8   5 267.655 138.499   4
  -7  -1   5 186.452 164.802   6
   1  -8   5-160.189 154.490   6
  -8   7   5-13.8713 166.501   5
   8  -7   5 42.4988 171.539  10
   1  -8   5-34.5134 172.437  10
  -1   8   6 1559.33 271.567   4
   1  -8   6 1682.37 294.195   6
   8  -7   6 1894.33 286.938  10
  -6  -2  -7 906.743 233.395   3
   8  -6  -6 398.349 173.625  10
  -2   8  -6 439.971 204.213   7
   8  -6  -6 595.721 217.961   2
  -6  -2  -6 773.958 213.323   3
  -8   6  -6 627.462 188.133   5
   2  -8  -6 912.111 212.170  10
  -8   6  -5 1218.64 270.986   9
  -2   8  -5 1441.79 281.464   7
   8  -6  -5 1282.45 266.814   2
   6   2  -5 1388.96 267.635   2
   2  -8  -5 1806.17 305.617   3
  -6  -2  -5 1950.60 303.543   5
  -8   6  -5 1811.92 278.892   5
   2  -8  -5 1775.34 272.761  10
  -8   6  -4 1520.99 278.119   9
  -2   8  -4 1030.34 236.450   7
   8  -6  -4 1511.79 271.380   2
   6   2  -4 1331.87 265.643   2
   2  -8  -4 1247.40 244.966   3
  -6  -2  -4 1346.70 272.101   5
  -8   6  -4 1049.38 232.657   5
   2  -8  -4 1568.53 255.456  10
  -8   6  -3 4490.85 429.601   9
  -2   8  -3 5066.28 446.826   7
   2  -8  -3 4121.22 391.563   3
  -6  -2  -3 4306.74 417.931   5
  -8   6  -3 4137.89 388.981   5
   8  -6  -3 4372.36 419.388   2
   2  -8  -3 4824.88 409.920  10
   6   2  -3 4667.70 414.984   2
   8  -6  -2 805.497 220.164   2
  -2   8  -2 1104.65 242.213   7
   6   2  -2 832.950 197.726   2
   2  -8  -2 1104.89 211.629   3
  -6  -2  -2 1249.72 231.585   5
   8  -6  -2 849.170 154.057   3
  -8   6  -2 913.315 208.773   5
   2  -8  -2 934.741 217.278  10
  -2   8  -1 3851.65 379.496   7
   2  -8  -1 3116.13 318.985   3
  -6  -2  -1 3186.51 345.172   5
   8  -6  -1 3098.78 339.250   2
  -8   6  -1 3270.73 344.923   5
   2  -8  -1 3495.76 358.371  10
   6   2  -1 3551.81 344.625   2
   2  -8   0 1955.69 179.335   1
  -2   8   0 1372.21 253.846   7
   8  -6   0 2126.99 297.861   1
   6   2   0 1957.57 254.529   2
  -6  -2   0 1955.12 257.412   6
  -6  -2   0 1975.03 273.483   5
  -8   6   0 2163.97 286.482   5
  -2   8   0 1688.82 183.482   4
   2  -8   0 1968.13 280.050  10
  -2   8   0 1861.46 185.671   9
   2  -8   1 3166.98 253.906   1
  -2   8   1 2966.34 322.100   8
  -8   6   1 2549.76 317.659   4
  -2   8   1 2673.59 319.016   7
  -6  -2   1 2361.75 293.573   6
  -6  -2   1 2903.76 316.293   5
   8  -6   1 2348.64 317.779   1
  -8   6   1 2724.17 324.715   5
   6   2   1 2736.15 286.106   2
  -2   8   1 3086.50 261.076   4
   2  -8   1 2782.40 327.013  10
  -2   8   2 1143.96 231.217   8
  -8   6   2 1339.94 233.679   4
  -2   8   2 1188.87 182.416   4
  -2   8   2 1526.47 261.421   7
   6   2   2 1156.41 195.872   2
   2  -8   2 892.228 159.491   1
  -8   6   2 1134.01 144.848   6
  -6  -2   2 1411.15 243.094   6
   8  -6   2 1156.01 231.898   1
  -6  -2   2 1221.48 213.748   5
  -8   6   2 1339.53 244.495   5
   2  -8   2 624.522 180.228  10
   2  -8   3 4394.88 357.807   1
  -2   8   3 5021.15 426.601   8
  -2   8   3 4228.45 395.350   7
  -8   6   3 4420.84 310.625   6
  -6  -2   3 4466.30 404.191   6
  -6  -2   3 5017.46 363.548   5
   8  -6   3 4071.57 403.882   1
   6   2   3 3930.15 294.440   1
   6   2   3 4438.68 342.008   2
  -8   6   3 3671.37 395.598   5
  -8   6   3 4601.88 422.919   4
   2  -8   3 4869.06 419.991  10
  -2   8   3 5092.60 379.257   4
  -2   8   4 1355.76 253.382   8
  -8   6   4 1722.11 277.814   4
  -2   8   4 1502.04 238.811   4
   2  -8   4 1391.19 242.684   1
  -8   6   4 1196.23 192.746   6
  -6  -2   4 1382.89 249.638   6
   2  -8   4 990.956 204.938   6
  -6  -2   4 1361.32 193.113   5
   8  -6   4 1102.75 246.994   1
  -8   6   4 1213.75 246.652   5
   2  -8   4 1185.75 234.370  10
  -2   8   5 1839.62 307.516   8
  -8   6   5 1862.41 300.029   4
  -2   8   5 1999.89 284.497   4
   2  -8   5 1366.93 269.229   1
  -6  -2   5 1264.47 254.678   6
   2  -8   5 1942.50 258.811   6
   8  -6   5 1306.47 282.942   1
  -8   6   5 1283.32 271.338   5
   8  -6   5 1410.01 272.859  10
   2  -8   5 1595.36 252.801  10
  -2   8   6 380.284 169.450   8
  -2   8   6 616.794 190.377   4
   2  -8   6 1099.31 253.009   1
   6   2   6 143.130 156.166   4
  -8   6   6 796.070 233.889   5
   8  -6   6 485.821 190.703  10
   2  -8   6 727.075 201.862  10
  -3   8  -7 1567.70 293.176   7
   8  -5  -7 1780.19 294.533   2
  -8   5  -6 70.5030 170.804   9
  -3   8  -6 614.863 213.700   7
   8  -5  -6 362.351 223.798   2
  -5  -3  -6 41.7502 127.189   3
   3  -8  -6-65.7097 185.131   3
  -8   5  -6-103.600 156.770   5
   3  -8  -6 439.717 146.578  10
  -8   5  -5 1995.90 308.214   9
  -3   8  -5 1787.31 295.117   7
   8  -5  -5 1708.77 324.435   2
   5   3  -5 1749.80 281.009   2
  -5  -3  -5 2426.42 339.195   3
   3  -8  -5 1271.25 240.357   3
  -5  -3  -5 2207.61 314.018   5
  -8   5  -5 1929.76 284.553   5
   3  -8  -5 2056.78 275.381  10
  -8   5  -4 1737.06 276.403   9
  -3   8  -4 1068.75 233.061   7
   8  -5  -4 1161.52 254.718   2
   5   3  -4 1778.95 278.235   2
  -5  -3  -4 1800.77 299.712   3
   3  -8  -4 1642.40 255.808   3
  -5  -3  -4 1535.75 258.574   5
  -8   5  -4 1260.76 245.959   5
   3  -8  -4 1608.63 249.965  10
   5   3  -3 2012.42 202.061   8
  -3   8  -3 2063.09 293.128   7
   8  -5  -3 1654.99 260.639   2
   5   3  -3 1961.84 276.129   2
   3  -8  -3 2015.94 276.569   3
  -5  -3  -3 1851.16 272.028   5
  -8   5  -3 1894.80 274.734   5
   3  -8  -3 2131.83 282.167  10
   5   3  -2 1763.90 203.180   8
   8  -5  -2 1527.72 255.842   2
  -3   8  -2 2125.31 290.811   7
   5   3  -2 1545.07 232.704   2
   3  -8  -2 1761.99 242.096   3
  -5  -3  -2 1656.07 257.831   5
  -8   5  -2 1827.05 278.305   5
   3  -8  -2 1948.64 267.226  10
   5   3  -1 6967.01 398.986   8
   3  -8  -1 6753.09 317.572   1
  -3   8  -1 6243.20 474.860   7
   3  -8  -1 6459.69 410.276   3
  -5  -3  -1 7030.47 468.951   5
  -8   5  -1 6752.24 490.200   5
   8  -5  -1 7352.10 503.576   2
  -3   8  -1 7036.82 353.674   4
   3  -8  -1 6470.24 464.124  10
   5   3  -1 6416.97 434.649   2
  -3   8  -1 6444.87 386.183   9
  -3   8   0 1458.61 178.832   9
  -3   8   0 1496.99 182.910   4
   5   3   0 1628.35 219.470   8
   8  -5   0 1391.44 240.252   2
  -3   8   0 1419.84 262.988   7
   5   3   0 1485.29 218.141   2
  -5  -3   0 1524.93 244.666   6
  -5  -3   0 1481.59 229.385   5
   3  -8   0 1498.34 173.867   1
  -8   5   0 1136.07 229.333   5
   3  -8   0 1820.90 272.577  10
   5   3   1 6939.40 442.300   8
   3  -8   1 6014.36 365.273   1
  -3   8   1 5735.59 461.091   7
  -8   5   1 6580.69 287.239   6
  -5  -3   1 5805.78 439.491   6
  -5  -3   1 6340.75 421.458   5
  -8   5   1 6456.04 473.431   5
   8  -5   1 6730.65 480.878   1
   5   3   1 6313.65 399.809   2
   3  -8   1 6059.15 457.136  10
  -3   8   1 6154.18 378.086   4
  -3   8   2 1715.63 252.334   8
  -8   5   2 1782.74 277.582   4
   5   3   2 1922.15 265.830   8
  -3   8   2 1515.78 213.672   4
   8  -5   2 1726.88 265.792   1
  -3   8   2 2040.49 295.667   7
   5   3   2 1485.86 200.439   2
  -8   5   2 1244.67 158.321   6
  -5  -3   2 1952.16 278.022   6
   3  -8   2 1839.42 224.231   1
  -5  -3   2 1686.13 219.326   5
  -8   5   2 1818.32 287.846   5
   3  -8   2 2104.59 280.085  10
  -3   8   3 2028.99 285.870   8
  -8   5   3 1609.03 253.123   4
   5   3   3 2223.12 300.880   8
  -3   8   3 2098.41 257.498   4
   5   3   3 1871.44 212.617   2
  -8   5   3 1977.31 214.254   6
   8  -5   3 2348.97 319.489   1
  -5  -3   3 2435.30 312.576   6
  -5  -3   3 2131.91 227.999   5
   3  -8   3 1749.40 252.698   1
  -8   5   3 2028.13 291.521   5
   3  -8   3 2035.49 283.036  10
  -3   8   4 1697.94 275.053   8
  -8   5   4 1898.09 283.033   4
  -3   8   4 1560.94 237.390   4
   5   3   4 1845.20 216.646   7
   5   3   4 1894.26 265.236   4
  -8   5   4 1508.62 217.616   6
  -5  -3   4 1512.92 255.868   6
   3  -8   4 1568.79 208.424   6
   3  -8   4 1601.31 257.133   1
  -8   5   4 1628.65 279.422   5
   8  -5   4 1680.87 280.641   1
   3  -8   4 1856.49 262.933  10
  -3   8   5 1835.91 294.771   8
  -8   5   5 1759.42 277.540   4
  -3   8   5 2037.70 287.057   4
   5   3   5 1952.44 281.408   4
  -8   5   5 1789.43 260.114   6
  -5  -3   5 1858.25 300.430   6
   3  -8   5 2045.88 297.521   1
   8  -5   5 2377.76 337.422   1
  -8   5   5 1673.30 289.403   5
   3  -8   5 1643.22 263.227  10
  -3   8   6 267.122 177.008   8
  -8   5   6-167.350 161.197   4
  -3   8   6 363.602 185.857   4
   5   3   6 217.528 160.424   4
   8  -5   6 186.632 181.641   1
  -8   5   6 28.0066 157.485   6
   3  -8   6 234.622 174.948   1
  -8   5   6-194.629 212.272   5
   3  -8   6 485.313 168.257  10
  -3   8   7 1916.40 310.017   8
  -8   5   7 1953.35 318.134   5
  -4   8  -7 88.2808 167.699   7
   8  -4  -7-99.6606 143.348   2
  -8   4  -7-181.022 160.384   5
  -8   4  -6 3209.05 388.892   9
  -4   8  -6 3578.94 401.066   7
   8  -4  -6 3101.22 378.533   2
  -4  -4  -6 3675.70 414.749   3
   4  -8  -6 3178.78 389.593   3
  -8   4  -6 3305.51 366.561   5
   4  -8  -6 3081.73 331.437  10
  -8   4  -5-116.272 178.211   9
  -4   8  -5 216.982 194.727   7
   8  -4  -5 221.218 169.603   2
  -4  -4  -5 90.4915 159.796   3
   4   4  -5 266.059 161.744   2
   4  -8  -5 41.9289 139.563   3
  -4  -4  -5-77.8761 153.307   5
  -8   4  -5 206.894 136.325   5
   4  -8  -5 359.176 150.504  10
  -4   8  -4 1026.60 213.556   7
   8  -4  -4 823.043 219.301   2
  -4  -4  -4 660.019 197.319   3
   4   4  -4 1370.13 249.326   2
   4  -8  -4 616.646 190.782   3
  -4  -4  -4 1039.55 224.060   5
  -8   4  -4 805.245 207.324   5
   4  -8  -4 722.911 198.700  10
   4   4  -3 151.790 98.6708   8
  -4   8  -3 139.892 171.142   7
   8  -4  -3 93.9782 148.883   2
   4   4  -3 255.256 139.824   2
   4  -8  -3 9.20473 115.429   3
  -4  -4  -3 79.7682 119.332   5
  -8   4  -3 105.296 127.522   5
  -4   8  -3 98.8644 98.9964   5
   4  -8  -3 126.094 126.998  10
   4   4  -2 5892.84 367.685   8
  -4   8  -2 4977.86 439.214   7
   4  -8  -2 5843.65 395.487   3
   4  -8  -2 5755.29 316.185   1
  -4  -4  -2 6164.55 454.725   5
  -8   4  -2 5097.57 434.564   5
   8  -4  -2 5762.94 452.995   2
   4  -8  -2 5950.61 452.986  10
  -4   8  -2 5701.65 407.201   9
   4   4  -2 5442.93 406.181   2
  -4   8  -1 68.6857 108.374   9
  -4   8  -1 178.290 109.595   4
   4   4  -1 77.8810 108.018   8
   8  -4  -1 197.009 152.504   2
  -4   8  -1 43.4241 158.175   7
   4  -8  -1 170.850 81.0407   1
   4   4  -1 360.395 132.510   2
   4  -8  -1 309.866 118.513   3
  -4  -4  -1-9.29041 136.457   5
  -8   4  -1 163.799 143.598   5
   4  -8  -1 231.812 153.891  10
  -4   8   0 10281.1 479.363   9
   4   4   0 9950.79 517.547   8
   4   4   0 10232.3 371.602   4
  -4   8   0 10354.7 606.847   7
   4  -8   0 10865.9 484.062   1
   4  -8   0 9983.08 450.582   3
  -8   4   0 9665.33 339.836   6
  -4  -4   0 9406.31 556.987   6
  -4  -4   0 9696.74 521.027   5
  -8   4   0 9865.70 581.659   5
   8  -4   0 9578.09 572.198   2
   4  -8   0 9844.65 568.286  10
  -4   8   0 10037.2 482.449   4
   4   4   0 9432.06 483.057   2
   4  -8   1 95.8132 101.799   1
   4   4   1 65.3685 122.529   8
  -4   8   1 133.916 102.911   4
   8  -4   1 60.4329 139.822   2
   4   4   1 139.109 80.4770   4
   4   4   1 187.256 104.289   2
  -8   4   1 120.011 71.9316   6
  -4  -4   1 88.4980 135.166   6
   8  -4   1 247.387 143.643   1
  -4  -4   1 121.840 109.233   5
  -8   4   1 215.797 160.433   5
   4  -8   1 105.872 126.563  10
   4   4   2 5558.39 349.409   4
   4   4   2 6192.68 448.585   8
   4   4   2 5722.52 402.957   7
   4  -8   2 5473.04 394.280   1
  -8   4   2 5118.47 321.921   6
  -4  -4   2 6126.42 464.481   6
  -4  -4   2 5536.16 359.302   5
  -8   4   2 5743.40 447.674   5
   8  -4   2 5678.99 449.328   1
  -8   4   2 5626.91 436.106   4
   4   4   2 5705.40 333.659   2
   4  -8   2 6188.05 454.888  10
  -4   8   2 5502.68 396.062   4
  -4   8   3 34.3258 131.999   8
  -8   4   3 129.875 129.827   4
   4   4   3-23.4750 164.151   8
  -4   8   3 70.5390 114.820   4
   4   4   3 363.167 133.071   7
   4   4   3 140.404 107.078   4
  -8   4   3-34.7471 125.064   6
  -4  -4   3 182.568 131.083   6
  -4  -4   3 143.412 84.7281   5
   8  -4   3-40.4998 145.330   1
  -8   4   3 318.332 165.333   5
   4  -8   3 221.503 138.808   1
   4  -8   3 161.830 156.726  10
   8  -4   4 786.750 208.632   1
  -4   8   4 751.682 186.418   8
  -8   4   4 1194.01 237.712   4
   4   4   4 769.809 225.114   8
  -4   8   4 652.323 161.698   4
   4   4   4 876.603 167.286   7
   4   4   4 466.406 156.190   4
  -8   4   4 951.519 186.932   6
  -4  -4   4 999.051 232.518   6
   4  -8   4 591.768 217.286   1
  -8   4   4 941.757 229.807   5
   4  -8   4 654.615 186.986  10
  -4   8   5 64.1324 132.837   8
  -8   4   5-58.6036 140.071   4
   4   4   5-58.5302 179.057   8
  -4   8   5 408.737 176.416   4
   4   4   5 240.919 140.809   4
  -8   4   5 55.2315 136.799   6
  -4  -4   5 351.740 170.852   6
   4  -8   5 41.8920 135.510   1
   8  -4   5 28.3749 130.493   1
  -8   4   5 292.607 210.285   5
   4  -8   5 586.545 184.410  10
   4   4   6 3835.04 397.735   4
  -4   8   6 3296.41 354.429   8
  -8   4   6 3034.02 361.938   4
  -4   8   6 2747.13 349.860   4
  -8   4   6 3523.72 387.054   6
   8  -4   6 2816.26 365.636   1
   4  -8   6 3005.07 374.301   1
  -8   4   6 3031.48 367.406   5
   4  -8   6 3203.74 335.185  10
  -4   8   7 10.9907 140.576   8
  -8   4   7-88.1381 161.666   5
  -8   3  -7 2199.60 353.503   9
   3   5  -6 97.4314 161.695   7
   8  -3  -6 351.313 158.652   2
  -3  -5  -6 286.212 179.752   3
   5  -8  -6 220.195 178.141   3
  -8   3  -6 66.2954 138.479   5
   5  -8  -6 353.614 152.537  10
   3   5  -5 1735.32 282.846   7
   8  -3  -5 1807.33 300.146   2
  -3  -5  -5 2228.13 318.345   3
   3   5  -5 1515.76 269.125   2
   5  -8  -5 1785.28 285.840   3
  -3  -5  -5 2242.31 334.782   5
  -8   3  -5 2180.50 300.777   5
   5  -8  -5 2133.35 281.020  10
   3   5  -4 1856.88 225.047   8
   8  -3  -4 1632.00 279.069   2
  -3  -5  -4 1918.89 304.642   3
   3   5  -4 1768.33 269.660   2
   5  -8  -4 1534.71 251.315   3
  -3  -5  -4 1809.80 275.604   5
  -8   3  -4 1696.03 270.620   5
  -5   8  -4 1861.18 217.074   5
   5  -8  -4 1702.50 259.596  10
  -5   8  -3 1951.08 271.330   9
   3   5  -3 2053.19 235.687   8
   8  -3  -3 1745.27 278.404   2
  -3  -5  -3 2447.61 311.471   3
   3   5  -3 2489.02 300.983   2
   5  -8  -3 2131.73 222.032   1
   5  -8  -3 1916.66 245.072   3
  -3  -5  -3 1719.06 267.690   5
  -8   3  -3 1938.96 287.332   5
  -5   8  -3 2061.03 236.514   5
   5  -8  -3 2024.52 274.958  10
  -5   8  -2 1482.41 230.615   9
   3   5  -2 1758.09 226.162   8
   5  -8  -2 1544.48 195.211   1
   8  -3  -2 1521.63 255.395   2
   3   5  -2 1749.05 238.425   2
   5  -8  -2 1506.26 203.975   3
  -3  -5  -2 1664.52 256.759   5
  -8   3  -2 1710.44 260.515   5
  -5   8  -2 1542.57 229.132   5
   5  -8  -2 1652.42 259.642  10
   3   5  -1 5988.59 394.146   2
   3   5  -1 6553.17 418.223   8
   3   5  -1 6616.56 468.911   7
   5  -8  -1 6947.42 380.010   3
  -3  -5  -1 6394.78 440.579   5
   5  -8  -1 5642.66 371.556   1
  -8   3  -1 6407.02 480.272   5
   8  -3  -1 6483.77 478.420   2
  -5   8  -1 6649.56 410.558   4
   5  -8  -1 6295.87 467.456  10
  -5   8  -1 6095.71 413.767   9
  -5   8   0 1734.38 228.368   9
  -5   8   0 1119.13 191.901   4
   3   5   0 1452.50 227.214   8
   3   5   0 1327.37 228.163   7
   8  -3   0 1313.56 239.450   2
  -8   3   0 1282.57 155.209   6
   3   5   0 1336.36 187.607   2
   5  -8   0 1043.13 145.795   3
   5  -8   0 1593.67 213.981   1
  -3  -5   0 1163.77 201.875   5
  -8   3   0 1513.82 256.845   5
   5  -8   0 1542.67 248.754  10
   3   5   1 6849.92 328.661   4
   3   5   1 6359.85 443.777   8
   3   5   1 7587.55 475.869   7
  -8   3   1 6028.81 344.377   6
  -3  -5   1 7226.24 502.621   6
   5  -8   1 6774.21 436.115   1
  -3  -5   1 7636.96 427.958   5
  -8   3   1 5981.03 450.094   5
   8  -3   1 6467.89 474.631   2
   5  -8   1 7164.72 489.544  10
  -5   8   1 6645.16 431.676   4
   3   5   1 6249.93 354.701   2
   3   5   2 2018.46 270.431   8
  -5   8   2 1373.63 220.616   4
   5  -8   2 1601.27 240.408   1
   8  -3   2 1961.51 290.344   2
   3   5   2 1777.18 245.428   7
   3   5   2 1874.19 202.065   4
  -8   3   2 1503.28 197.068   6
  -3  -5   2 1717.37 274.855   6
  -3  -5   2 1811.67 206.898   5
   8  -3   2 1678.13 267.127   1
  -8   3   2 2505.21 297.953   5
   3   5   2 1821.67 183.918   2
   5  -8   2 1873.35 263.846  10
   5  -8   3 1519.22 251.315   1
   8  -3   3 2198.38 289.448   1
  -5   8   3 2051.33 264.593   8
  -8   3   3 1874.92 272.306   4
   3   5   3 1849.02 295.414   8
  -5   8   3 1802.07 267.583   4
   3   5   3 2135.64 248.789   7
   3   5   3 1987.74 233.353   4
  -8   3   3 1588.70 223.167   6
  -3  -5   3 2023.96 289.312   6
  -3  -5   3 1586.74 179.246   5
  -8   3   3 1664.40 276.258   5
   5  -8   3 2466.86 298.403  10
  -5   8   4 1223.85 214.787   8
  -8   3   4 1362.14 243.805   4
   3   5   4 1714.74 278.946   8
  -5   8   4 1805.77 278.321   4
   8  -3   4 1460.82 262.189   1
   3   5   4 1480.10 216.092   7
   3   5   4 942.298 182.006   4
  -8   3   4 1194.22 210.440   6
  -3  -5   4 1749.08 286.893   6
  -8   3   4 1264.20 251.951   5
   5  -8   4 1341.07 250.436   1
   5  -8   4 1442.77 254.023  10
  -5   8   5 2050.76 277.536   8
  -8   3   5 2193.42 310.548   4
   3   5   5 1850.09 317.817   8
  -5   8   5 2131.31 301.980   4
   3   5   5 1791.86 258.221   4
  -8   3   5 2571.76 316.053   6
  -3  -5   5 2108.58 306.084   6
   5  -8   5 1482.15 273.470   1
  -8   3   5 1502.34 267.698   5
   8  -3   5 1575.46 265.787   1
   5  -8   5 1973.12 278.598  10
  -8   3   6 51.2854 162.282   4
  -5   8   6 96.8748 131.202   8
   3   5   6 51.1619 150.314   4
  -8   3   6 358.015 186.406   6
   8  -3   6 217.437 166.281   1
  -3  -5   6 28.5829 128.979   6
  -8   3   6 91.0040 167.752   5
   5  -8   6 209.776 149.409  10
  -8   3   7 1844.94 305.994   4
   8  -3   7 1905.35 323.457   1
   6  -8  -6 607.186 202.071   3
  -8   2  -6 87.3783 135.587   5
   6  -8  -6 387.491 161.927  10
  -6   8  -5 1858.93 301.381   9
   2   6  -5 2166.10 314.163   7
   8  -2  -5 1191.03 254.316   2
  -2  -6  -5 1663.53 302.673   3
   2   6  -5 1801.13 293.997   2
   6  -8  -5 1696.84 252.383   3
  -8   2  -5 1721.23 292.656   5
   6  -8  -5 1300.32 232.135  10
  -6   8  -4 1613.83 276.665   9
   6  -8  -4 1535.36 217.361   1
   2   6  -4 1296.66 205.783   8
   2   6  -4 1244.23 251.476   7
   8  -2  -4 1656.99 274.920   2
  -2  -6  -4 1199.07 246.018   3
   2   6  -4 1532.18 254.319   2
   6  -8  -4 1373.49 230.534   3
  -8   2  -4 1146.68 237.268   5
  -6   8  -4 1699.13 230.398   5
   6  -8  -4 1540.96 253.594  10
   2   6  -3 4903.02 377.306   8
   2   6  -3 4757.58 402.327   2
   2   6  -3 4414.17 411.760   7
  -2  -6  -3 4962.80 438.080   3
   6  -8  -3 4634.83 359.537   3
  -8   2  -3 4420.58 414.648   5
  -6   8  -3 4349.20 360.473   5
   6  -8  -3 4531.94 348.796   1
   8  -2  -3 4659.65 431.506   2
   6  -8  -3 4825.87 419.094  10
  -6   8  -3 4145.25 402.213   9
  -6   8  -2 1461.29 243.920   9
   2   6  -2 1316.29 211.596   8
   2   6  -2 1380.87 256.312   7
   8  -2  -2 1295.88 257.601   2
   2   6  -2 1340.70 212.683   2
   6  -8  -2 854.883 158.928   3
  -8   2  -2 851.848 212.187   5
  -6   8  -2 762.504 184.784   5
   6  -8  -2 1222.07 202.234   1
   6  -8  -2 1403.58 253.990  10
  -6   8  -1 2950.68 308.406   9
   2   6  -1 3105.43 284.981   2
   2   6  -1 2695.50 292.120   8
   2   6  -1 2686.73 312.554   7
   8  -2  -1 2623.08 325.258   2
   6  -8  -1 2870.79 231.211   3
   6  -8  -1 2720.88 291.663   1
  -8   2  -1 3290.52 359.747   5
  -6   8  -1 2522.47 297.944   5
   6  -8  -1 3029.99 337.963  10
  -6   8   0 1856.79 250.708   4
   2   6   0 2267.89 272.928   8
   2   6   0 1880.51 265.840   7
   8  -2   0 1849.43 274.594   2
  -8   2   0 1338.95 181.261   6
   2   6   0 1800.89 213.719   2
  -8   2   0 1874.86 275.208   5
  -6   8   0 1878.36 265.096   5
   6  -8   0 2225.90 292.209  10
   6  -8   0 1845.33 248.092   1
   2   6   1 3330.79 225.642   4
   2   6   1 3036.64 326.812   8
   2   6   1 3887.11 361.339   7
  -8   2   1 3355.85 284.117   6
  -2  -6   1 3743.04 371.176   6
   6  -8   1 3153.18 323.931   1
  -8   2   1 3240.13 340.728   5
   8  -2   1 3296.92 353.843   2
  -6   8   1 3318.57 330.252   4
   6  -8   1 3058.72 343.321  10
   2   6   1 3159.97 247.559   2
   8  -2   2 737.764 179.991   1
   2   6   2 1016.77 219.532   8
  -6   8   2 743.605 185.242   4
   8  -2   2 1121.45 232.428   2
   2   6   2 1074.75 161.495   4
   2   6   2 1120.14 214.251   7
  -8   2   2 655.920 153.892   6
  -2  -6   2 1013.38 232.918   6
   6  -8   2 864.553 199.113   1
  -8   2   2 814.860 199.032   5
   6  -8   2 1301.13 247.191  10
   2   6   3 4727.76 344.637   4
   2   6   3 4586.53 416.298   8
   2   6   3 4818.45 382.931   7
  -8   2   3 4718.96 371.775   6
   6  -8   3 3701.78 380.313   1
  -2  -6   3 4572.08 421.563   6
  -8   2   3 4651.06 406.355   5
   8  -2   3 3980.46 376.501   1
   8  -2   3 3959.66 382.734   2
   6  -8   3 4102.94 394.126  10
  -6   8   3 4577.39 413.193   4
  -8   2   4 1065.73 210.933   4
  -6   8   4 1177.41 201.637   8
   6  -8   4 1442.99 256.953   1
   2   6   4 1213.07 256.411   8
  -6   8   4 1655.07 272.112   4
   2   6   4 1410.84 218.304   4
   2   6   4 1148.41 203.674   7
   8  -2   4 1339.83 248.358   1
  -8   2   4 1407.48 233.005   6
  -2  -6   4 1127.19 245.092   6
  -8   2   4 1224.95 241.546   5
  -2  -6   4 1055.00 219.987   1
   6  -8   4 1580.80 268.641  10
  -8   2   5 1670.60 259.447   4
  -6   8   5 1226.15 207.207   8
   2   6   5 1178.32 260.685   8
  -6   8   5 1250.32 250.018   4
   2   6   5 1459.94 236.983   4
  -8   2   5 1123.73 262.532   6
  -2  -6   5 1130.48 249.104   6
  -8   2   5 1480.00 262.793   5
   8  -2   5 1591.51 255.182   1
  -2  -6   5 1821.75 300.252   1
   6  -8   5 1190.77 245.233  10
   6  -8   5 1169.02 240.299   1
  -8   2   6 507.932 195.033   4
   2   6   6 486.126 187.545   4
  -8   2   6 454.561 179.401   6
   8  -2   6 216.652 148.882   1
  -2  -6   6 100.160 142.332   1
   6  -8   6 529.065 186.906  10
   7  -8  -6 1077.25 264.123   3
   7  -8  -6 1179.48 234.885  10
   1   7  -5-263.517 174.454   7
   1   7  -5-68.5150 157.634   2
   7  -8  -5 246.192 163.993   3
  -8   1  -5 62.7102 144.672   5
   7  -8  -5 93.0867 126.406  10
  -7   8  -4 1607.72 294.759   9
   1   7  -4 1328.19 261.502   7
   8  -1  -4 1964.37 312.180   2
  -1  -7  -4 1781.64 293.579   3
   1   7  -4 1847.75 281.437   2
   7  -8  -4 1910.56 268.627   3
  -8   1  -4 2008.41 316.497   5
  -7   8  -4 1606.19 247.808   5
   7  -8  -4 1939.53 291.879  10
  -7   8  -3 493.146 210.108   9
   1   7  -3 106.360 116.457   8
   1   7  -3-2.45558 123.774   7
   8  -1  -3-110.322 167.859   2
  -1  -7  -3 91.6568 132.891   3
   1   7  -3-130.408 158.293   2
   7  -8  -3-131.961 128.307   3
  -8   1  -3-18.5289 142.127   5
  -7   8  -3-39.9991 112.302   5
   7  -8  -3 11.8239 133.978  10
   7  -8  -3 14.5845 138.027   1
  -7   8  -2 5493.14 461.067   9
   1   7  -2 5489.96 425.031   8
   1   7  -2 4954.56 384.213   2
   1   7  -2 5373.74 464.134   7
  -1  -7  -2 5334.64 451.701   3
  -8   1  -2 5001.98 446.858   5
  -7   8  -2 5296.53 425.515   5
   7  -8  -2 5009.46 421.258   1
   7  -8  -2 4865.72 436.616  10
   8  -1  -2 6328.84 495.139   2
   1   7  -1 346.595 159.330   8
   1   7  -1 457.819 172.819   7
   8  -1  -1 440.678 159.371   2
   1   7  -1 373.543 128.398   2
  -8   1  -1 364.690 167.564   5
  -7   8  -1 462.903 185.459   5
   7  -8  -1 422.424 182.217   1
   7  -8  -1 264.777 150.628  10
   1   7   0 2548.49 244.187   2
  -7   8   0 2557.00 303.150   4
   1   7   0 2264.98 303.373   8
   1   7   0 2699.74 327.769   7
   8  -1   0 2129.48 294.185   2
  -8   1   0 2771.96 267.795   6
   7  -8   0 2185.23 299.125   1
  -8   1   0 2378.53 308.332   5
  -7   8   0 2821.82 340.801   5
   7  -8   0 2321.33 312.964  10
  -1  -7   0 2591.15 321.809  10
   7  -8   1 473.258 191.743   1
   1   7   1 407.638 156.438   8
  -7   8   1 88.4077 127.248   4
   1   7   1 541.496 179.984   7
   8  -1   1 213.253 138.367   2
  -8   1   1 237.659 119.332   6
   1   7   1 384.674 106.623   2
  -8   1   1 418.822 166.848   5
  -7   8   1 278.241 173.597   5
   7  -8   1 334.833 150.981  10
   1   7   2 5373.51 447.634   8
   1   7   2 5091.34 423.162   7
  -8   1   2 5131.97 394.642   6
  -1  -7   2 4960.57 436.544   6
   7  -8   2 4630.44 435.758   1
  -8   1   2 4848.54 418.128   5
  -7   8   2 5156.08 454.575   5
  -1  -7   2 4389.66 311.637   1
   8  -1   2 4832.43 423.082   2
   8  -1   2 5198.82 424.875   1
   7  -8   2 4766.74 431.476  10
  -7   8   2 5281.87 444.302   4
   1   7   2 4830.99 319.719   4
   1   7   3 108.472 138.458   8
  -7   8   3 125.256 129.190   4
   1   7   3-95.7983 97.5034   4
   8  -1   3-12.1815 121.765   2
   1   7   3 65.7276 132.579   7
  -8   1   3 197.516 121.053   6
  -1  -7   3-0.78060 141.470   6
   7  -8   3 10.4582 145.632   1
   8  -1   3 12.3719 120.106   1
  -8   1   3 27.0188 134.591   5
  -7   8   3-68.2598 163.132   5
  -1  -7   3-42.6535 105.839   1
   7  -8   3-28.9360 146.651  10
  -7   8   4 1661.56 228.602   8
   1   7   4 1825.43 289.397   8
  -7   8   4 1998.75 309.835   4
   1   7   4 1897.13 252.257   4
   1   7   4 2001.74 272.195   7
   7  -8   4 1342.35 265.499   1
   8  -1   4 1776.33 280.862   1
  -8   1   4 1860.96 284.133   6
  -1  -7   4 2150.30 326.376   6
  -8   1   4 2281.08 302.784   5
   7  -8   4 2366.70 325.641  10
  -1  -7   4 1739.81 257.968   1
   1   7   5 98.7156 112.907   4
  -8   1   5 12.5162 132.044   6
  -8   1   5 119.360 120.361   5
   8  -1   5-208.849 144.490   1
   7  -8   5 266.174 157.880  10
  -1  -7   5 99.6238 164.815   1
   1   7   6 1433.47 259.246   4
   7  -8   6 1875.99 284.509  10
   8  -8  -5 1015.38 240.715  10
   0   8  -4 449.123 162.445   2
  -8   8  -4 515.181 192.986   5
   8  -8  -4 250.607 180.400  10
   0  -8  -4 723.699 198.502  10
  -8   8  -3 1353.79 280.720   9
   0   8  -3 1549.98 272.752   7
   8   0  -3 1252.58 256.273   2
   8  -8  -3 963.974 243.025   1
   0  -8  -3 1326.90 267.392   3
   0   8  -3 1164.44 220.300   2
  -8   0  -3 996.777 237.194   5
  -8   8  -3 1933.17 291.341   5
   8  -8  -3 1409.30 285.224  10
   0  -8  -3 1292.51 256.159  10
   0   8  -2 331.458 149.028   8
   0   8  -2 284.883 178.759   7
   8  -8  -2 558.251 246.297   1
   8   0  -2 506.541 169.866   2
   0  -8  -2 453.168 175.898   3
   0   8  -2 357.674 147.247   2
  -8   0  -2 162.264 179.165   5
  -8   8  -2 405.488 205.693   5
   8  -8  -2 111.893 147.053  10
   0  -8  -2 378.922 185.766  10
   0   8  -1 3801.54 381.373   8
   0   8  -1 3335.33 310.436   2
   0   8  -1 4183.62 419.098   7
   8   0  -1 3392.65 376.735   2
   8  -8  -1 3194.65 388.687   1
  -8   0  -1 3425.76 386.253   5
  -8   8  -1 3955.70 396.711   5
   0  -8  -1 4095.63 408.764  10
   8  -8  -1 3512.19 386.970  10
   0   8   0 2590.86 254.134   2
   0   8   0 2572.77 331.427   8
   0   8   0 3713.76 385.829   7
   8   0   0 2944.44 348.098   2
  -8   0   0 2723.91 306.597   6
   8  -8   0 2505.71 329.884   1
  -8   0   0 2645.25 334.332   5
  -8   8   0 2342.63 333.113   5
   8  -8   0 2239.84 324.079  10
   0  -8   0 2840.72 348.036  10
   0   8   1 4068.59 415.891   8
  -8   8   1 3213.04 359.059   4
   0   8   1 4113.32 406.087   7
   8  -8   1 2805.70 352.228   1
  -8   0   1 3425.28 346.233   6
  -8   0   1 4127.08 412.956   5
  -8   8   1 3689.13 406.358   5
   8   0   1 3938.98 384.091   2
   8  -8   1 3990.15 409.164  10
   0  -8   1 4264.57 416.689  10
   0   8   2 451.492 165.687   8
  -8   8   2 326.448 187.527   4
   0   8   2 308.878 158.167   7
   8   0   2 543.980 169.843   2
  -8   0   2 274.115 152.178   6
  -8   0   2-35.1199 175.189   5
  -8   8   2 348.086 192.304   5
   8  -8   2 435.346 184.329   1
   8  -8   2 321.104 145.178  10
   0  -8   2 357.950 106.203   1
   0  -8   2 152.788 152.576  10
   0   8   3 1382.16 272.185   8
  -8   8   3 1253.16 261.382   4
   8   0   3 1314.31 236.139   2
   0   8   3 1498.94 273.091   7
  -8   0   3 1586.50 268.821   6
   0  -8   3 1243.45 256.561   6
   8   0   3 1254.57 226.878   1
   8  -8   3 954.521 247.873   1
  -8   0   3 1119.76 257.366   5
  -8   8   3 837.864 251.036   5
   8  -8   3 1504.02 278.463  10
   0  -8   3 940.252 228.011  10
   0  -8   3 1017.44 182.071   1
   0  -8   4 582.605 199.951   1
   0   8   4 744.493 188.151   4
   0   8   4 302.945 184.731   7
   8   0   4 271.042 143.447   1
  -8   0   4 291.904 159.470   6
   0  -8   4 478.348 189.932   6
  -8   0   4 299.982 153.735   5
   8  -8   4 293.959 182.652  10
   0  -8   5 1168.52 237.590   1
   0   8   5 838.202 206.665   4
   0  -8   5 995.378 242.654   6
   8  -8   5 627.059 212.441  10
  -9   8  -4 108.230 166.528   5
  -1   9  -3 679.698 185.357   2
  -9   8  -3 670.710 227.957   5
   8   1  -2 198.800 164.640   2
   1  -9  -2 512.144 186.213   3
  -1   9  -2 225.834 153.034   2
  -8  -1  -2 457.848 209.388   5
  -9   8  -2 137.970 158.043   5
   9  -8  -2-270.994 216.567   1
   9  -8  -2 247.248 209.994  10
   1  -9  -2 518.318 189.330  10
  -1   9  -1 2828.35 362.839   8
  -1   9  -1 2383.50 354.786   7
   8   1  -1 2056.48 320.504   2
  -1   9  -1 2159.37 272.930   2
  -8  -1  -1 2924.61 368.659   5
  -9   8  -1 2269.87 333.136   5
   9  -8  -1 1810.20 312.839   1
   9  -8  -1 2357.07 364.932  10
   1  -9  -1 2775.63 365.950  10
   9  -8   0 1371.87 275.087   1
  -1   9   0 1942.70 314.044   8
  -1   9   0 1470.62 277.283   7
   8   1   0 1624.97 290.883   2
  -8  -1   0 1337.48 263.861   6
  -8  -1   0 1944.71 309.591   5
  -9   8   0 1804.12 298.708   5
   9  -8   0 1789.50 315.099  10
   1  -9   0 1009.87 242.793  10
  -9   8   1 2140.72 337.016   4
  -1   9   1 2673.35 353.584   8
  -1   9   1 2915.11 375.457   7
   8   1   1 2473.50 314.391   2
  -8  -1   1 2530.87 340.434   6
   9  -8   1 2246.50 329.408   1
  -8  -1   1 2616.31 337.267   5
  -9   8   1 2545.95 363.954   5
   9  -8   1 2199.38 330.227  10
   1  -9   1 2628.79 348.864  10
   9  -8   2 201.153 159.627   1
  -1   9   2 126.226 148.570   7
   8   1   2 522.460 171.408   2
  -8  -1   2 518.851 205.909   6
  -8  -1   2 659.593 229.685   5
   8   1   2 125.819 109.685   1
   9  -8   2 209.998 160.220  10
   1  -9   2 143.141 150.463  10
   8   1   3 979.947 223.523   2
  -1   9   3 1215.12 277.612   7
  -8  -1   3 867.656 223.697   6
  -8  -1   3 760.416 221.919   5
   1  -9   4 256.253 144.232   1
  -1   9   4 263.527 184.789   7
   1  -9   4-5.85999 149.576   6
   9  -7  -5 1746.70 312.527   2
  -9   7  -5 1556.56 290.054   5
   9  -7  -5 1628.48 305.484  10
   2  -9  -5 1440.48 272.882  10
   9  -7  -4 82.0912 157.061   2
   2  -9  -4 375.745 174.609   3
  -2   9  -4 100.801 141.126   2
  -9   7  -4 387.903 189.291   5
   9  -7  -4 426.619 193.992  10
   2  -9  -4 243.978 149.015  10
   9  -7  -3 1177.09 262.120   2
  -2   9  -3 1544.17 305.408   7
   7   2  -3 1709.55 289.041   2
   2  -9  -3 1370.04 247.906   3
  -7  -2  -3 1413.37 268.217   5
  -2   9  -3 1945.32 291.532   2
  -9   7  -3 1397.72 261.700   5
   2  -9  -3 1228.59 253.268  10
   9  -7  -2 1891.69 301.139   2
  -2   9  -2 2149.68 332.470   7
   7   2  -2 2219.99 309.850   2
   2  -9  -2 1885.40 282.294   3
  -7  -2  -2 1236.91 255.062   5
  -2   9  -2 2024.48 267.943   2
  -9   7  -2 1230.38 252.712   5
   2  -9  -2 1606.35 267.796  10
  -2   9  -1 2720.29 288.557   2
   9  -7  -1 1986.13 314.588   1
  -2   9  -1 2751.03 358.692   7
   7   2  -1 2129.69 304.343   2
  -7  -2  -1 2010.99 299.787   5
  -9   7  -1 2359.21 330.720   5
   2  -9  -1 2350.86 325.903  10
  -2   9   0 25.5398 149.763   8
  -2   9   0 280.667 188.585   7
   7   2   0-64.8254 152.799   2
  -7  -2   0-142.517 172.344   6
  -2   9   0-46.9649 109.883   2
  -7  -2   0 80.2655 144.958   5
  -9   7   0-7.74821 124.904   5
   9  -7   0-55.2368 146.279   1
   2  -9   0 204.137 175.198  10
   9  -7   1 2750.65 352.923   1
  -2   9   1 2565.79 349.898   8
  -2   9   1 2409.45 341.255   7
   7   2   1 2158.14 292.353   2
  -7  -2   1 2961.36 348.032   6
  -7  -2   1 2263.49 323.430   5
  -9   7   1 2651.20 352.514   5
   2  -9   1 2280.73 326.211  10
  -9   7   2 2017.74 308.482   4
  -2   9   2 2241.42 327.981   8
   2  -9   2 1796.11 222.795   1
  -2   9   2 1826.30 296.301   7
   7   2   2 1966.46 278.414   2
   9  -7   2 1983.95 329.333   1
  -7  -2   2 2162.98 309.603   6
  -7  -2   2 1842.31 284.674   5
  -9   7   2 1988.37 340.555   5
   2  -9   2 2061.70 310.638  10
   9  -7   3 1290.24 278.630   1
  -2   9   3 1186.27 241.654   8
  -9   7   3 1652.30 293.721   4
  -2   9   3 1617.29 237.793   4
   2  -9   3 1294.78 219.718   1
  -2   9   3 1801.85 299.322   7
  -7  -2   3 1615.53 287.206   6
  -7  -2   3 1348.80 229.309   5
  -9   7   3 2234.42 346.123   5
   2  -9   3 1556.09 271.060  10
  -2   9   4 100.039 137.616   4
   2  -9   4 333.558 175.321   1
   9  -7   4 398.869 201.753  10
   2  -9   4-131.465 185.825  10
  -2   9   5 1161.78 243.094   4
   2  -9   5 1038.32 230.718   1
   9  -7   5 1872.57 318.465  10
   2  -9   5 1129.25 256.072  10
   9  -6  -5-30.2414 172.479   2
  -9   6  -5-210.556 196.479   5
   3  -9  -5 222.627 159.451  10
   9  -6  -4 1695.32 303.534   2
  -3   9  -4 1978.44 339.822   7
   6   3  -4 2149.33 314.436   2
   3  -9  -4 1806.56 291.079   3
  -9   6  -4 2055.46 323.185   5
   3  -9  -4 3049.90 357.862  10
   9  -6  -3 107.950 175.108   2
  -3   9  -3 238.922 174.857   7
   6   3  -3-23.1722 150.720   2
   3  -9  -3-109.118 162.615   3
  -6  -3  -3 198.786 167.399   5
  -9   6  -3 50.4040 139.998   5
   3  -9  -3 215.249 132.374  10
   9  -6  -2 2684.51 339.298   2
  -3   9  -2 3100.48 373.023   7
   6   3  -2 2935.47 348.534   2
   3  -9  -2 2917.61 330.069   3
  -6  -3  -2 2973.91 370.004   5
  -9   6  -2 2538.06 329.866   5
   3  -9  -2 2305.00 316.516  10
  -3   9  -1-1.54091 83.8085   9
   6   3  -1 104.330 106.006   8
   9  -6  -1 110.282 169.234   2
  -3   9  -1-27.9490 170.631   7
   6   3  -1-124.041 131.317   2
   3  -9  -1-43.1820 138.032   3
  -6  -3  -1-73.6889 179.259   5
  -9   6  -1 14.9690 141.162   5
   3  -9  -1-162.342 156.428  10
   6   3   0 3549.84 331.233   8
   9  -6   0 3246.05 379.214   2
  -3   9   0 4429.38 428.146   7
  -6  -3   0 4276.30 412.046   6
  -9   6   0 4138.67 423.487   5
  -6  -3   0 3591.84 372.626   5
   6   3   0 3972.28 369.664   2
   3  -9   0 3718.27 386.546  10
   9  -6   0 3513.98 390.848   1
  -3   9   1-43.4624 140.054   8
  -3   9   1 140.827 95.6375   4
   6   3   1 35.3479 137.304   8
  -3   9   1 69.2811 142.175   7
   6   3   1 89.4355 107.685   2
  -6  -3   1-158.860 153.620   6
   3  -9   1-44.5675 92.6660   1
  -6  -3   1 9.42647 143.396   5
  -9   6   1 53.9315 145.152   5
   9  -6   1-152.210 176.482   1
   3  -9   1-37.4225 133.480  10
  -3   9   2 3670.41 386.887   8
  -9   6   2 2952.82 360.725   4
  -3   9   2 2654.07 279.538   4
  -3   9   2 2537.52 351.664   7
   6   3   2 2501.26 272.039   2
  -6  -3   2 2555.10 335.543   6
   3  -9   2 2692.71 274.422   1
  -6  -3   2 3081.23 314.323   5
  -9   6   2 2933.71 365.545   5
   9  -6   2 2501.30 352.025   1
   3  -9   2 2475.70 326.680  10
  -3   9   3 33.6072 125.121   8
  -9   6   3 25.7918 126.209   4
  -3   9   3 149.468 125.954   4
   9  -6   3-126.580 187.069   1
   3  -9   3 247.123 132.770   1
  -6  -3   3 277.772 146.902   6
  -6  -3   3 142.812 111.937   5
  -9   6   3 78.6850 128.844   5
   3  -9   3 179.773 158.295  10
  -3   9   4 2136.70 314.678   8
  -9   6   4 2200.70 336.585   4
  -3   9   4 1905.04 281.968   4
   6   3   4 2403.77 307.145   4
   3  -9   4 2229.49 312.990   1
  -6  -3   4 2531.67 358.087   6
  -9   6   4 2032.69 326.879   5
   9  -6   4 1832.81 338.337   1
   3  -9   4 2141.84 307.113  10
  -3   9   5-88.5959 136.170   4
   6   3   5 43.1211 127.384   4
   3  -9   5-52.1097 160.969   1
   3  -9   5-317.390 212.750  10
   9  -6   6 2321.74 334.453  10
   3  -9   6 1846.71 303.667  10
   4  -9  -6 1246.78 247.970  10
  -4   9  -5 1254.08 278.994   7
   9  -5  -5 1427.94 273.659   2
  -5  -4  -5 1213.73 270.359   3
   4  -9  -5 1232.62 267.342   3
  -9   5  -5 1358.95 258.429   5
   4  -9  -5 1073.50 244.883  10
  -4   9  -4 121.847 140.531   7
   9  -5  -4 253.651 162.379   2
   5   4  -4 348.058 163.414   2
   4  -9  -4-111.315 164.876   3
  -5  -4  -4 201.726 163.178   5
  -9   5  -4 214.145 161.369   5
   4  -9  -4 84.9730 135.788  10
  -4   9  -3 194.207 188.989   7
   9  -5  -3 584.435 211.157   2
   5   4  -3 691.436 187.037   2
   4  -9  -3 759.984 198.255   3
  -5  -4  -3 535.328 187.801   5
  -9   5  -3 828.718 222.641   5
   4  -9  -3 532.480 180.155  10
  -4   9  -2 1226.94 210.229   9
   5   4  -2 1194.92 198.534   8
   9  -5  -2 850.246 224.192   2
  -4   9  -2 1181.89 280.940   7
   5   4  -2 1058.90 209.527   2
   4  -9  -2 595.520 155.825   3
  -5  -4  -2 507.291 179.095   5
  -9   5  -2 1169.78 248.663   5
   4  -9  -2 957.519 216.159  10
   5   4  -1 4322.39 351.884   8
  -4   9  -1 4372.03 426.974   7
   4  -9  -1 4421.59 354.330   3
  -5  -4  -1 4629.62 419.827   5
  -9   5  -1 4336.48 417.817   5
   9  -5  -1 4309.66 422.155   2
   4  -9  -1 4557.42 419.734  10
   5   4  -1 3940.62 363.094   2
  -4   9  -1 4806.59 365.986   9
  -4   9   0 1260.53 184.014   9
  -4   9   0 1286.17 201.025   4
   5   4   0 1132.36 208.648   8
   9  -5   0 1016.46 225.837   2
  -4   9   0 848.058 221.029   7
   5   4   0 1174.73 216.815   2
  -5  -4   0 957.935 218.801   5
  -9   5   0 785.263 203.382   5
   4  -9   0 952.419 161.749   1
   4  -9   0 800.231 218.582  10
   5   4   1 4193.93 384.860   8
   4  -9   1 4300.65 341.736   1
  -5  -4   1 4286.59 411.316   6
  -5  -4   1 4191.66 366.565   5
   9  -5   1 3997.28 413.955   2
  -9   5   1 3530.30 389.800   5
   9  -5   1 3702.94 394.666   1
   5   4   1 4026.57 334.489   2
   4  -9   1 4282.53 407.686  10
  -4   9   1 4557.18 357.182   4
  -4   9   2 1183.08 239.723   8
   5   4   2 669.301 199.822   8
  -4   9   2 678.382 169.421   4
   5   4   2 986.865 176.288   4
   5   4   2 1044.47 180.973   2
   9  -5   2 718.914 211.831   1
  -5  -4   2 829.502 225.052   6
  -5  -4   2 998.809 183.815   5
   4  -9   2 1191.23 210.510   1
  -9   5   2 878.384 212.698   5
   4  -9   2 995.499 220.682  10
  -9   5   3 480.923 178.118   4
  -4   9   3 489.053 165.972   8
   5   4   3 731.537 220.568   8
  -4   9   3 813.952 203.393   4
   5   4   3 758.903 174.699   7
   5   4   3 553.973 159.093   4
  -9   5   3 601.192 134.679   6
  -5  -4   3 546.844 208.646   6
   9  -5   3 517.816 214.445   1
   4  -9   3 829.988 205.331   1
  -9   5   3 618.692 206.268   5
   4  -9   3 726.331 201.106  10
   9  -5   4 85.9910 151.753   1
  -4   9   4 252.213 181.718   8
  -9   5   4 144.710 130.368   4
   5   4   4 182.471 174.383   8
  -4   9   4 4.66469 125.217   4
   5   4   4 163.573 130.769   4
  -9   5   4 24.1586 97.3061   6
  -5  -4   4 9.09223 172.708   6
   4  -9   4 290.619 197.215   1
  -9   5   4 169.667 162.491   5
   4  -9   4 221.989 168.262  10
  -4   9   5 1639.25 288.591   8
  -4   9   5 1543.59 263.151   4
   5   4   5 1261.16 236.182   4
  -9   5   5 1428.85 241.837   6
   4  -9   5 1898.31 301.156   1
  -9   5   5 1559.20 288.276   5
   4  -9   5 1984.81 302.007  10
  -9   5   6 1666.72 271.468   6
   4  -9   6 850.738 222.247  10
   5  -9  -6 1121.79 247.437  10
  -5   9  -5 2142.23 330.466   7
   5  -9  -5 1179.33 258.026   3
  -9   4  -5 1289.11 268.454   5
   5  -9  -5 1384.79 258.965  10
  -5   9  -4 196.442 157.132   9
  -5   9  -4 172.149 153.227   7
   9  -4  -4-107.234 177.342   2
  -4  -5  -4 283.331 161.320   3
   4   5  -4 415.441 185.904   2
   5  -9  -4 173.276 152.331   3
  -4  -5  -4 387.455 180.129   5
  -9   4  -4-147.873 155.492   5
   5  -9  -4-46.6649 154.581  10
  -5   9  -3 862.927 210.318   9
   4   5  -3 493.940 143.815   8
  -5   9  -3 509.562 208.723   7
   9  -4  -3 799.515 226.952   2
   4   5  -3 647.618 186.905   2
   5  -9  -3 1024.66 201.938   3
  -4  -5  -3 293.447 149.264   5
  -9   4  -3 651.915 198.201   5
  -5   9  -3 627.145 159.294   5
   5  -9  -3 684.042 196.189  10
  -5   9  -2 1152.41 218.354   9
   4   5  -2 1136.21 207.158   8
   9  -4  -2 588.363 204.489   2
   4   5  -2 922.868 205.297   2
   5  -9  -2 876.256 183.857   3
  -4  -5  -2 1233.94 239.674   5
  -9   4  -2 746.211 218.803   5
  -5   9  -2 990.838 191.113   5
   5  -9  -2 1143.53 241.839  10
  -5   9  -1 3430.20 324.744   9
   4   5  -1 4439.98 366.797   8
   9  -4  -1 3586.81 402.380   2
   5  -9  -1 3949.33 314.646   3
   5  -9  -1 3965.98 313.022   1
  -9   4  -1 4397.40 420.971   5
  -4  -5  -1 3934.77 387.767   5
   5  -9  -1 4749.62 434.688  10
   4   5  -1 4493.05 368.757   2
  -5   9   0 891.622 186.909   4
   4   5   0 1462.17 242.168   8
   5  -9   0 1293.98 200.923   1
   4   5   0 1128.52 231.752   7
   9  -4   0 966.404 220.116   2
   4   5   0 1181.79 200.722   2
  -4  -5   0 1199.11 224.591   5
  -9   4   0 1062.24 234.389   5
   5  -9   0 1543.25 272.328  10
   4   5   1 4419.29 395.894   8
   4   5   1 4623.64 403.696   7
   5  -9   1 4261.57 365.086   1
  -4  -5   1 4984.02 446.342   6
  -4  -5   1 4977.56 382.927   5
  -9   4   1 4137.80 415.482   5
   9  -4   1 4557.65 436.755   2
   9  -4   1 3593.47 400.220   1
   5  -9   1 4224.13 412.255  10
  -5   9   1 4360.67 366.188   4
   4   5   1 3582.19 297.638   2
   5  -9   2 976.313 209.764   1
   4   5   2 1001.99 222.755   8
  -5   9   2 1307.34 231.375   4
   9  -4   2 1123.39 248.679   2
   4   5   2 1145.73 211.310   7
  -9   4   2 849.945 156.185   6
  -4  -5   2 1155.57 257.475   6
  -4  -5   2 1067.01 179.138   5
  -9   4   2 814.343 236.894   5
   9  -4   2 838.831 223.919   1
   5  -9   2 1449.23 255.679  10
  -5   9   3 416.004 183.147   8
   4   5   3 979.215 237.724   8
  -5   9   3 640.064 188.077   4
   4   5   3 580.197 152.636   7
   4   5   3 663.791 162.065   4
  -9   4   3 668.315 164.550   6
  -4  -5   3 701.275 211.253   6
  -9   4   3 733.198 217.997   5
   9  -4   3 577.331 202.430   1
   5  -9   3 473.618 193.979   1
   5  -9   3 1208.22 245.660  10
  -9   4   4 148.344 156.130   4
  -5   9   4 97.8624 159.576   8
   4   5   4 7.16225 175.920   8
  -5   9   4 464.599 193.031   4
   9  -4   4 7.77869 161.963   1
   4   5   4 109.002 102.830   4
  -9   4   4 89.0964 119.079   6
  -4  -5   4 308.569 191.307   6
   5  -9   4 54.8781 154.510   1
  -9   4   4 298.255 195.727   5
   5  -9   4 393.513 201.318  10
  -9   4   5 1444.07 274.347   4
  -5   9   5 1130.53 249.322   8
   4   5   5 940.924 204.593   4
  -9   4   5 1481.73 259.324   6
   5  -9   5 1397.51 253.936   1
   9  -4   5 1435.52 280.646   1
  -9   4   5 1277.99 273.480   5
   5  -9   5 1269.54 257.306  10
  -5   9   6 1066.58 235.558   8
  -9   4   6 726.104 206.840   6
  -9   4   6 1034.82 247.021   5
   5  -9   6 1349.16 260.124  10
   6  -9  -5 228.763 166.537   3
   6  -9  -5 185.992 139.503  10
  -6   9  -4 1994.64 305.593   9
   9  -3  -4 2564.71 351.832   2
   3   6  -4 2419.41 321.293   2
   6  -9  -4 2074.00 289.661   3
  -9   3  -4 1805.18 291.349   5
   6  -9  -4 2626.53 343.962  10
  -6   9  -3 280.025 187.706   9
   3   6  -3 135.446 106.875   8
   3   6  -3 173.005 139.948   7
   9  -3  -3 273.932 187.430   2
   3   6  -3 60.1976 136.028   2
   6  -9  -3 1.85248 134.120   3
  -3  -6  -3 138.026 146.389   5
  -9   3  -3 128.067 159.238   5
  -6   9  -3-87.0313 127.545   5
   6  -9  -3 293.067 157.762  10
   6  -9  -2 2441.27 277.434   1
   3   6  -2 2406.00 286.350   8
   3   6  -2 2480.97 331.616   7
   9  -3  -2 2943.36 364.069   2
   3   6  -2 2301.50 294.225   2
   6  -9  -2 2381.43 261.434   3
  -3  -6  -2 2629.77 320.772   5
  -9   3  -2 2991.91 370.376   5
  -6   9  -2 2481.58 297.460   5
   6  -9  -2 2717.61 340.198  10
  -6   9  -2 3478.98 365.714   9
  -6   9  -1-2.07092 128.966   9
   3   6  -1 81.7155 131.618   8
   3   6  -1-34.2464 128.753   7
   9  -3  -1 29.4867 127.730   2
   3   6  -1-15.8245 114.726   2
  -3  -6  -1 482.682 209.399   5
   6  -9  -1-132.205 122.775   1
  -9   3  -1-30.3913 141.521   5
  -6   9  -1 42.3254 132.324   5
   6  -9  -1 11.5635 150.615  10
   3   6   0 4078.59 381.163   8
   3   6   0 3817.81 390.865   7
   9  -3   0 3656.16 398.389   2
   6  -9   0 3330.89 328.746   1
  -3  -6   0 3674.16 350.380   5
  -9   3   0 3596.80 386.392   5
  -6   9   0 3986.31 392.747   5
  -6   9   0 3514.84 346.797   4
   6  -9   0 3825.94 409.822  10
   3   6   0 3761.54 317.466   2
  -6   9   1 121.768 138.824   4
   3   6   1-114.918 131.564   8
   3   6   1-232.740 192.043   7
   9  -3   1 0.82422 150.760   2
   6  -9   1-148.252 150.571   1
  -9   3   1-55.2893 84.1750   6
  -3  -6   1 66.4063 134.197   6
  -9   3   1-137.282 160.830   5
   6  -9   1-50.3852 120.370  10
   3   6   2 3600.36 381.302   8
  -6   9   2 3049.90 341.850   4
   3   6   2 3410.72 355.666   7
   6  -9   2 2105.70 320.523   1
   9  -3   2 2966.21 366.802   2
   9  -3   2 2353.94 331.001   1
  -9   3   2 3137.92 292.434   6
  -3  -6   2 3154.33 382.327   6
  -9   3   2 3272.48 377.654   5
   6  -9   2 2573.61 335.131  10
   6  -9   3 29.1911 163.087   1
   9  -3   3 16.4291 155.452   1
  -6   9   3 117.366 142.493   8
   3   6   3 212.744 179.266   8
  -6   9   3 87.3396 135.867   4
   3   6   3 121.338 133.907   7
  -9   3   3 68.7849 97.6940   6
  -3  -6   3 110.866 125.864   6
  -9   3   3 75.1374 165.151   5
   6  -9   3 600.477 207.218  10
  -6   9   4 2357.69 310.269   8
   3   6   4 2276.48 338.104   8
  -6   9   4 2279.54 323.422   4
   3   6   4 2127.04 269.662   4
   9  -3   4 2269.77 318.385   1
  -9   3   4 1895.75 274.985   6
  -3  -6   4 1906.11 299.372   6
  -9   3   4 2109.80 326.092   5
   6  -9   4 2377.05 326.199  10
   6  -9   4 2192.17 319.804   1
  -9   3   5 53.3451 164.407   4
  -6   9   5-55.7800 140.843   8
   3   6   5 78.9009 126.996   4
  -9   3   5 24.7001 150.079   6
  -9   3   5 331.399 179.739   5
   9  -3   5 182.845 166.307   1
   6  -9   5-70.5205 165.657  10
   6  -9   6 1305.91 245.989  10
   7  -9  -5 1146.20 244.482   3
   7  -9  -5 1190.61 269.179  10
   2   7  -4 141.005 138.815   8
   2   7  -4 335.407 170.692   2
   7  -9  -4 343.656 187.309  10
  -7   9  -3 1990.89 307.776   9
   2   7  -3 841.265 201.316   8
   2   7  -3 1839.98 305.540   7
   9  -2  -3 1669.52 291.191   2
  -2  -7  -3 2264.28 341.766   3
   2   7  -3 1760.96 265.486   2
  -9   2  -3 1216.81 278.932   5
  -7   9  -3 1314.20 252.299   5
   7  -9  -3 1369.91 260.957  10
   7  -9  -3 1667.23 244.845   1
  -7   9  -2 1919.24 297.383   9
   2   7  -2 1923.30 275.926   8
   2   7  -2 1860.54 305.800   7
   9  -2  -2 1715.59 295.320   2
   7  -9  -2 1944.70 276.354   1
   2   7  -2 1778.98 251.063   2
  -9   2  -2 2153.45 326.063   5
  -7   9  -2 1563.56 254.114   5
   7  -9  -2 1975.02 311.940  10
   2   7  -1 2272.44 295.820   8
   7  -9  -1 2174.72 292.415   1
   2   7  -1 2430.83 328.571   7
   9  -2  -1 2359.35 339.570   2
   2   7  -1 2315.36 261.675   2
  -9   2  -1 1848.65 287.879   5
  -7   9  -1 2613.29 333.352   5
   7  -9  -1 2591.10 338.045  10
  -7   9   0 2.99838 134.009   4
   2   7   0-122.551 151.520   8
   2   7   0 51.8579 132.287   7
   9  -2   0-16.1381 134.923   2
  -9   2   0-105.261 74.5539   6
   2   7   0 163.248 113.265   2
  -9   2   0-105.159 168.289   5
  -7   9   0 81.4597 135.721   5
   7  -9   0 26.4983 149.928   1
   7  -9   0 106.536 152.132  10
  -7   9   1 2653.81 327.146   4
   2   7   1 3131.79 364.065   8
   2   7   1 2821.17 333.656   7
   9  -2   1 2496.65 338.487   2
  -9   2   1 1978.76 238.541   6
   7  -9   1 1850.01 321.416   1
  -9   2   1 2457.89 328.428   5
  -7   9   1 2709.25 356.095   5
   7  -9   1 2123.82 310.605  10
   2   7   2 1866.02 299.172   8
  -7   9   2 1395.32 261.431   4
   9  -2   2 1997.05 305.423   2
   2   7   2 1627.09 279.354   7
   7  -9   2 1885.19 295.201   1
  -9   2   2 1915.76 261.874   6
  -2  -7   2 2062.70 323.017   6
  -9   2   2 2195.59 314.271   5
   9  -2   2 2041.73 303.820   1
  -7   9   2 1567.24 296.521   5
   7  -9   2 2000.23 296.413  10
   2   7   3 1777.78 293.722   8
  -7   9   3 1580.63 293.020   4
   9  -2   3 2140.04 327.811   2
   9  -2   3 1783.06 287.738   1
   2   7   3 1995.37 293.407   7
   7  -9   3 1834.22 305.843   1
  -9   2   3 1503.43 250.973   6
  -2  -7   3 1740.90 303.223   6
  -9   2   3 1761.51 293.171   5
   7  -9   3 1124.05 252.594  10
  -7   9   4 274.262 155.328   8
   9  -2   4 16.3398 145.677   1
  -9   2   4 427.253 187.101   6
  -9   2   4 164.186 173.278   5
   7  -9   4 338.216 188.360  10
   2   7   5 881.604 201.121   4
  -9   2   5 1409.16 262.142   6
  -9   2   5 898.834 227.604   5
   9  -2   5 1441.31 284.057   1
   7  -9   5 1394.49 279.421  10
   1   8  -4 228.168 145.765   8
   1   8  -3 809.042 202.742   8
   1   8  -3 1213.23 238.503   2
   8  -9  -3 854.555 253.663   1
  -8   9  -3 513.445 207.673   5
   1   8  -2 198.585 118.478   8
   1   8  -2 409.950 154.558   2
  -8   9  -2 447.221 185.128   5
   8  -9  -2-73.6522 193.133  10
   8  -9  -2 548.063 218.649   1
   1   8  -1 2097.73 305.551   8
   1   8  -1 2470.87 345.345   7
   9  -1  -1 2977.99 387.168   2
   8  -9  -1 1730.50 332.294   1
   1   8  -1 2515.42 286.436   2
  -9   1  -1 2198.88 344.098   5
  -8   9  -1 2618.06 340.596   5
   8  -9  -1 2877.89 385.483  10
   1   8   0 1609.90 277.477   8
   8  -9   0 1600.41 302.882   1
   1   8   0 1784.50 305.835   7
   9  -1   0 1482.29 276.753   2
  -9   1   0 1605.50 240.967   6
  -9   1   0 2070.35 313.603   5
  -8   9   0 2174.93 333.983   5
   8  -9   0 1494.65 289.547  10
  -8   9   1 1717.72 286.170   4
   1   8   1 2375.38 342.808   8
   1   8   1 1934.94 307.794   7
   9  -1   1 2581.54 346.460   2
  -9   1   1 2151.64 287.119   6
  -9   1   1 1921.29 311.921   5
  -8   9   1 1793.89 299.865   5
   8  -9   1 1898.95 309.377   1
   8  -9   1 2151.05 337.691  10
  -8   9   2 96.1901 143.286   4
   9  -1   2 561.904 207.203   2
   1   8   2 282.202 155.648   7
  -9   1   2 430.741 175.073   6
   8  -9   2 592.501 200.898   1
   9  -1   2 110.643 167.974   1
  -9   1   2 389.797 183.484   5
   8  -9   2 610.646 222.707  10
   9  -1   3 748.507 221.364   2
   1   8   3 1134.74 253.526   7
   9  -1   3 715.488 212.208   1
  -9   1   3 826.332 229.671   6
  -1  -8   3 997.307 257.578   6
  -9   1   3 698.495 228.174   5
   9  -1   4 330.561 166.279   1
  -9   1   4 93.6553 150.029   6
  -9   1   4 243.597 144.344   5
   0   9  -3-306.039 155.522   2
  -9   9  -3 75.0002 170.501   5
   9  -9  -2 760.345 229.153   1
   0   9  -2 729.168 182.909   2
   9  -9  -1-193.738 195.097   1
   9  -9   0 4791.39 469.949   1
   9   0   0 5281.34 494.304   2
   9   0   1-159.803 207.296   2
  -9   0   1 92.3148 136.381   6
  -9   0   1 151.675 178.704   5
   9   0   2 503.107 192.627   2
   0   9   2 1102.99 246.009   7
  -9   0   2 475.719 207.140   6
   9   0   2 707.125 209.778   1
  -9   0   2 783.911 217.314   5
   9   0   3-118.716 149.178   2
   0   9   3-116.736 206.600   7
  -9   0   3 100.201 148.054   5
  -2  10  -2 1601.69 257.575   2
   8   2   0 1115.01 265.829   2
   8   2   1 165.407 138.138   2
  -8  -2   1 141.769 163.027   5
  -8  -2   2 1726.59 278.014   5
   7   3  -2 680.636 215.194   2
   3 -10  -2 417.369 178.523   3
   7   3  -1 1521.02 282.497   2
  -7  -3  -1 983.615 254.346   5
   7   3   0 247.484 146.982   2
  -7  -3   0 267.829 164.940   5
   7   3   1 1084.96 225.536   2
  -7  -3   1 1684.41 292.362   6
  -7  -3   1 1026.86 253.431   5
  -7  -3   2 565.577 196.348   5
  -4  10  -3 1742.66 275.675   9
   4 -10  -3 1935.90 297.195   3
   6   4  -2 241.240 146.465   2
   4 -10  -2 24.4386 121.150   3
  -6  -4  -2 370.782 167.571   5
   6   4  -1 1172.45 242.576   2
  -6  -4  -1 1489.14 274.381   5
   6   4   0 1452.05 251.624   8
   6   4   0 1078.13 225.919   2
  -6  -4   0 930.820 236.854   5
   6   4   1 1774.70 291.143   8
   6   4   1 1218.42 228.591   2
  -6  -4   1 1460.96 277.508   6
  -6  -4   1 940.097 242.361   5
  -4  10   2-59.0313 134.856   4
   6   4   2 191.754 158.114   8
  -6  -4   2-102.221 154.995   5
  -4  10   3 1403.63 251.726   4
   4 -10   3 1987.25 275.713   1
  -4  10   4 524.637 174.855   4
   4 -10   4 308.354 148.114   1
  -5  10  -4 980.912 250.934   9
   5 -10  -4 1073.54 221.124   3
  -5  10  -3-154.555 177.162   9
   5   5  -3 17.5409 133.172   2
   5 -10  -3-300.882 174.567   3
  -5  10  -2 1604.09 270.948   9
   5   5  -2 2034.61 298.975   2
   5 -10  -2 1588.73 252.017   3
  -5  -5  -2 1514.71 280.582   5
  -5  10  -2 1253.73 233.759   5
   5   5  -1-206.771 166.226   8
   5   5  -1-58.8793 131.293   2
  -5  -5  -1 131.092 177.034   5
   5   5   0 2484.23 317.779   8
   5   5   0 2398.83 289.346   2
  -5  -5   0 2481.51 342.574   5
   5 -10   0 2698.15 365.063  10
  -5  10   1-114.459 140.635   4
   5   5   1-326.295 194.196   8
   5   5   1-47.8461 141.867   7
  -5  -5   1-102.570 169.855   5
   5 -10   1-27.8972 109.877   1
  -5  10   2 2163.53 330.765   8
  -5  10   2 2149.68 295.378   4
   5   5   2 1948.97 302.182   8
   5   5   2 2057.86 301.184   7
   5 -10   2 1587.07 270.403   1
  -5  10   3-81.5804 184.903   8
  -5  10   3 174.610 137.993   4
   5   5   3 27.8063 132.427   7
   5 -10   3-4.71275 138.600   1
   5 -10   4 1078.87 238.725   1
  -6  10  -3 1982.75 314.154   9
   4   6  -3 1182.92 229.556   2
  -6  10  -2 69.1148 133.557   9
   4   6  -2-87.2178 153.935   8
   4   6  -2 30.3686 144.231   2
  -4  -6  -2-19.3542 146.403   5
  -6  10  -2-106.001 144.791   5
  -6  10  -1 1563.84 254.919   9
   4   6  -1 806.542 206.057   8
   4   6  -1 1811.01 305.045   7
   4   6  -1 1391.17 237.975   2
  -4  -6  -1 1438.15 271.100   5
  -6  10  -1 1007.07 230.212   5
  -6  10   0 1123.28 225.758   4
   4   6   0 1374.61 256.824   8
   6 -10   0 1468.04 244.488   1
   4   6   0 1101.36 233.400   7
  -4  -6   0 1673.73 283.125   5
   6 -10   1 1218.20 246.339   1
  -6  10   1 1276.22 243.849   4
   4   6   1 1297.98 265.619   8
   4   6   1 1362.33 270.524   7
  10  -4   1 1006.41 249.374   1
  -4  -6   1 1120.93 220.959   5
   6 -10   2 89.2022 167.189   1
  -6  10   2 273.187 151.316   4
   4   6   2 287.296 168.883   8
   4   6   2 306.412 169.343   7
  -6  10   3 1711.42 287.991   8
  -6  10   3 1920.97 300.214   4
   4   6   3 1546.95 275.491   7
   6 -10   3 950.797 228.141   1
  -6  10   4 177.389 161.475   8
   3   7  -3 1610.92 267.010   8
   3   7  -3 1416.52 257.891   2
  -7  10  -2 597.919 225.110   9
   3   7  -2 252.489 167.670   8
   3   7  -2 584.714 178.221   2
  -7  10  -2 953.129 239.027   5
   3   7  -1 1337.56 252.295   8
   3   7  -1 1392.81 225.385   2
   7 -10  -1 1272.56 238.689   1
  -7  10  -1 1323.16 262.147   5
  -7  10   0 236.888 151.078   4
   3   7   0 276.741 153.974   8
   3   7   0 767.239 212.964   7
   7 -10   0 557.404 217.585   1
  -7  10   0 312.328 170.133   5
  -7  10   1 796.301 208.577   4
   3   7   1 1497.45 266.713   8
   3   7   1 629.692 219.874   7
   7 -10   1 1159.30 251.922   1
  -7  10   2 944.086 238.586   4
   7 -10   2 594.922 228.106   1
   3   7   2 966.058 227.376   7
  -7  10   3 1420.60 278.627   8
   3   7   3 1055.58 246.828   7
  -7  10   4 966.422 238.369   8
   2   8  -3-114.760 181.765   8
   2   8  -2 1684.87 288.017   8
   2   8  -2 1904.07 288.516   2
  -8  10  -2 1622.62 296.384   5
  -8  10  -1 121.403 150.330   5
   8 -10  -1 120.069 133.924   1
   8 -10   0 914.255 224.564   1
   8 -10   1 27.4635 127.269   1
   2   8   2 1691.99 316.796   7
  -8  10   3-66.5664 173.682   8
   2   8   3 233.706 195.643   7
   5   6   0-155.476 185.249   8
  -5  -6   0 25.7398 136.289   5
   0   0   0    0.00    0.00   0

TITL a in P6(3)
REM P6(3) (#173 in standard setting)
CELL 0.71073   7.988376   7.988376   7.806611  90.0000  90.0000 120.0000
ZERR    1.00   0.000214   0.000214   0.000226   0.0000   0.0000   0.0000
LATT -1
SYMM -y, x-y, z
SYMM -x+y,-x, z
SYMM -x,-y, z+1/2
SYMM  y,-x+y, z+1/2
SYMM  x-y, x, z+1/2
SFAC C H N O Mn
UNIT 10.00 10.00 4.00 10.00 1.00
TREF
HKLF 4
END
;
_shelx_hkl_checksum              52928

