####################################################################### 
# 
# This file contains crystal structure data downloaded from the 
# Cambridge Structural Database (CSD) hosted by the Cambridge 
# Crystallographic Data Centre (CCDC).
# 
# Full information about CCDC data access policies and citation 
# guidelines are available at http://www.ccdc.cam.ac.uk/access/V1 
# 
# Audit and citation data items may have been added by the CCDC. 
# Please retain this information to preserve the provenance of 
# this file and to allow appropriate attribution of the data. 
# 
#######################################################################

data_platon_sq
_audit_block_doi                 10.5517/ccdc.csd.cc25cjqt
_database_code_depnum_ccdc_archive 'CCDC 2007086'
loop_
_citation_id
_citation_doi
_citation_year
1 10.1007/s12274-021-3329-8 2021
loop_
_audit_author_name
_audit_author_address
Ni-btz
;Northeast Normal University
China
;
_audit_update_record             
;
2020-06-02 deposited with the CCDC.	2023-04-04 downloaded from the CCDC.
;

_audit_creation_method           SHELXL-2018/3
_shelx_SHELXL_version_number     2018/3
_chemical_name_systematic        ?
_chemical_name_common            ?
_chemical_melting_point          ?
_chemical_formula_moiety         ?
_chemical_formula_sum            'C10 H8 Cl2 N6 Ni'
_chemical_formula_weight         341.83

loop_
_atom_type_symbol
_atom_type_description
_atom_type_scat_dispersion_real
_atom_type_scat_dispersion_imag
_atom_type_scat_source
C C 0.0033 0.0016 'International Tables Vol C Tables 4.2.6.8 and 6.1.1.4'
H H 0.0000 0.0000 'International Tables Vol C Tables 4.2.6.8 and 6.1.1.4'
N N 0.0061 0.0033 'International Tables Vol C Tables 4.2.6.8 and 6.1.1.4'
Cl Cl 0.1484 0.1585 'International Tables Vol C Tables 4.2.6.8 and 6.1.1.4'
Ni Ni 0.3393 1.1124 'International Tables Vol C Tables 4.2.6.8 and 6.1.1.4'

_space_group_crystal_system      orthorhombic
_space_group_IT_number           74
_space_group_name_H-M_alt        'I m m a'
_space_group_name_Hall           '-I 2b 2'

_shelx_space_group_comment       
;
The symmetry employed for this shelxl refinement is uniquely defined
by the following loop, which should always be used as a source of
symmetry information in preference to the above space-group names.
They are only intended as comments.
;

loop_
_space_group_symop_operation_xyz
'x, y, z'
'-x, -y+1/2, z'
'-x, y+1/2, -z'
'x, -y, -z'
'x+1/2, y+1/2, z+1/2'
'-x+1/2, -y+1, z+1/2'
'-x+1/2, y+1, -z+1/2'
'x+1/2, -y+1/2, -z+1/2'
'-x, -y, -z'
'x, y-1/2, -z'
'x, -y-1/2, z'
'-x, y, z'
'-x+1/2, -y+1/2, -z+1/2'
'x+1/2, y, -z+1/2'
'x+1/2, -y, z+1/2'
'-x+1/2, y+1/2, z+1/2'

_cell_length_a                   21.277(5)
_cell_length_b                   7.074(2)
_cell_length_c                   15.854(5)
_cell_angle_alpha                90
_cell_angle_beta                 90
_cell_angle_gamma                90
_cell_volume                     2386.4(11)
_cell_formula_units_Z            4
_cell_measurement_temperature    299(2)
_cell_measurement_reflns_used    9941
_cell_measurement_theta_min      2.276
_cell_measurement_theta_max      28.224

_exptl_crystal_description       cuboid
_exptl_crystal_colour            lavender
_exptl_crystal_density_meas      ?
_exptl_crystal_density_method    'not measured'
_exptl_crystal_density_diffrn    0.951
_exptl_crystal_F_000             688
_exptl_transmission_factor_min   ?
_exptl_transmission_factor_max   ?
_exptl_crystal_size_max          0.2
_exptl_crystal_size_mid          0.18
_exptl_crystal_size_min          0.17
_exptl_absorpt_coefficient_mu    1.033
_shelx_estimated_absorpt_T_min   ?
_shelx_estimated_absorpt_T_max   ?
_exptl_absorpt_correction_type   multi-scan
_exptl_absorpt_correction_T_min  0.5915
_exptl_absorpt_correction_T_max  0.7453
_exptl_absorpt_process_details   'SADABS 2014/5'
_exptl_absorpt_special_details   ?
_diffrn_ambient_temperature      299(2)
_diffrn_radiation_wavelength     0.71073
_diffrn_radiation_type           MoK\a
_diffrn_source                   ?
_diffrn_measurement_device_type  'Bruker Smart Apex II CCD'
_diffrn_measurement_method       '\w scans'
_diffrn_detector_area_resol_mean ?
_diffrn_reflns_number            5260
_diffrn_reflns_av_unetI/netI     0.0639
_diffrn_reflns_av_R_equivalents  0.0839
_diffrn_reflns_limit_h_min       -19
_diffrn_reflns_limit_h_max       25
_diffrn_reflns_limit_k_min       -8
_diffrn_reflns_limit_k_max       8
_diffrn_reflns_limit_l_min       -18
_diffrn_reflns_limit_l_max       18
_diffrn_reflns_theta_min         3.147
_diffrn_reflns_theta_max         25.032
_diffrn_reflns_theta_full        25.032
_diffrn_measured_fraction_theta_max 0.982
_diffrn_measured_fraction_theta_full 0.982
_diffrn_reflns_Laue_measured_fraction_max 0.982
_diffrn_reflns_Laue_measured_fraction_full 0.982
_diffrn_reflns_point_group_measured_fraction_max 0.982
_diffrn_reflns_point_group_measured_fraction_full 0.982
_reflns_number_total             1176
_reflns_number_gt                908
_reflns_threshold_expression     'I > 2\s(I)'
_reflns_Friedel_coverage         0.000
_reflns_Friedel_fraction_max     .
_reflns_Friedel_fraction_full    .

_reflns_special_details          
;
 Reflections were merged by SHELXL according to the crystal
 class for the calculation of statistics and refinement.
 
 Structure factors included contributions from the .fab file.
 
 _reflns_Friedel_fraction is defined as the number of unique
 Friedel pairs measured divided by the number that would be
 possible theoretically, ignoring centric projections and
 systematic absences.
;

_computing_data_collection       ?
_computing_cell_refinement       ?
_computing_data_reduction        ?
_computing_structure_solution    ?
_computing_structure_refinement  'SHELXL-2018/3 (Sheldrick, 2018)'
_computing_molecular_graphics    ?
_computing_publication_material  ?
_refine_special_details          ?
_refine_ls_structure_factor_coef Fsqd
_refine_ls_matrix_type           full
_refine_ls_weighting_scheme      calc
_refine_ls_weighting_details     
'w=1/[\s^2^(Fo^2^)+(0.1092P)^2^+9.3016P] where P=(Fo^2^+2Fc^2^)/3'
_atom_sites_solution_primary     ?
_atom_sites_solution_secondary   ?
_atom_sites_solution_hydrogens   mixed
_refine_ls_hydrogen_treatment    mixed
_refine_ls_extinction_method     none
_refine_ls_extinction_coef       0.014(3)
_refine_ls_number_reflns         1176
_refine_ls_number_parameters     84
_refine_ls_number_restraints     32
_refine_ls_R_factor_all          0.0676
_refine_ls_R_factor_gt           0.0486
_refine_ls_wR_factor_ref         0.1595
_refine_ls_wR_factor_gt          0.1470
_refine_ls_goodness_of_fit_ref   0.934
_refine_ls_restrained_S_all      0.940
_refine_ls_shift/su_max          0.005
_refine_ls_shift/su_mean         0.000

loop_
_atom_site_label
_atom_site_type_symbol
_atom_site_fract_x
_atom_site_fract_y
_atom_site_fract_z
_atom_site_U_iso_or_equiv
_atom_site_adp_type
_atom_site_occupancy
_atom_site_site_symmetry_order
_atom_site_calc_flag
_atom_site_refinement_flags_posn
_atom_site_refinement_flags_adp
_atom_site_refinement_flags_occupancy
_atom_site_disorder_assembly
_atom_site_disorder_group
Ni1 Ni 0.500000 0.500000 0.500000 0.0105(4) Uani 1 4 d S T P . .
Cl1 Cl 0.500000 0.250000 0.39484(12) 0.0195(5) Uani 1 4 d S T P . .
Cl2 Cl 0.2851(3) 0.750000 0.5400(5) 0.0623(17) Uani 0.3665(16) 2 d S T P A 1
Cl3 Cl 0.2446(16) 0.750000 0.5561(19) 0.067(7) Uani 0.0919(16) 2 d S TU P B 2
Cl4 Cl 0.2900(15) 0.750000 0.604(3) 0.018(7) Uani 0.0416(16) 2 d S TU P C 3
N1 N 0.43210(15) 0.6526(5) 0.4350(2) 0.0184(8) Uani 1 1 d . . . . .
N2 N 0.3552(2) 0.750000 0.3560(4) 0.0307(14) Uani 1 2 d S T P . .
C1 C 0.38539(19) 0.5972(6) 0.3876(3) 0.0285(11) Uani 1 1 d . . . . .
H1 H 0.374557 0.472046 0.377163 0.034 Uiso 1 1 calc R U . . .
C2 C 0.3008(3) 0.750000 0.3020(5) 0.0387(19) Uani 1 2 d DS T P . .
C3 C 0.2564(5) 0.8866(14) 0.3122(7) 0.046(3) Uani 0.5 1 d D U P . .
C4 C 0.2021(5) 0.8867(16) 0.2600(8) 0.051(3) Uani 0.5 1 d D U P . .
H3 H 0.259(2) 0.979(6) 0.354(3) 0.061 Uiso 0.5 1 d D U P . .
H4 H 0.1703(19) 0.975(7) 0.271(4) 0.061 Uiso 0.5 1 d D U P . .

loop_
_atom_site_aniso_label
_atom_site_aniso_U_11
_atom_site_aniso_U_22
_atom_site_aniso_U_33
_atom_site_aniso_U_23
_atom_site_aniso_U_13
_atom_site_aniso_U_12
Ni1 0.0058(5) 0.0102(5) 0.0157(6) 0.0009(4) 0.000 0.000
Cl1 0.0263(11) 0.0165(10) 0.0158(10) 0.000 0.000 0.000
Cl2 0.046(4) 0.072(4) 0.069(5) 0.000 0.012(3) 0.000
Cl3 0.066(10) 0.058(10) 0.078(11) 0.000 -0.001(9) 0.000
Cl4 0.013(10) 0.010(10) 0.030(11) 0.000 0.006(9) 0.000
N1 0.0139(15) 0.0119(17) 0.0293(19) -0.0020(15) -0.0064(14) 0.0012(14)
N2 0.023(3) 0.022(3) 0.047(3) 0.000 -0.027(3) 0.000
C1 0.020(2) 0.018(2) 0.047(3) -0.002(2) -0.018(2) -0.0020(18)
C2 0.029(4) 0.031(4) 0.056(5) 0.000 -0.034(3) 0.000
C3 0.040(5) 0.040(6) 0.057(6) -0.017(5) -0.037(5) 0.007(4)
C4 0.041(5) 0.044(6) 0.069(6) -0.014(5) -0.038(5) 0.015(4)

_geom_special_details            
;
 All esds (except the esd in the dihedral angle between two l.s. planes)
 are estimated using the full covariance matrix.  The cell esds are taken
 into account individually in the estimation of esds in distances, angles
 and torsion angles; correlations between esds in cell parameters are only
 used when they are defined by crystal symmetry.  An approximate (isotropic)
 treatment of cell esds is used for estimating esds involving l.s. planes.
;

loop_
_geom_bond_atom_site_label_1
_geom_bond_atom_site_label_2
_geom_bond_distance
_geom_bond_site_symmetry_2
_geom_bond_publ_flag
Ni1 N1 2.077(3) . ?
Ni1 N1 2.077(3) 12_655 ?
Ni1 N1 2.077(3) 4_566 ?
Ni1 N1 2.077(3) 9_666 ?
Ni1 Cl1 2.4305(14) 9_666 ?
Ni1 Cl1 2.4305(14) . ?
N1 C1 1.306(5) . ?
N1 N1 1.378(7) 11_575 ?
N2 C1 1.353(5) 11_575 ?
N2 C1 1.354(5) . ?
N2 C2 1.440(8) . ?
C1 H1 0.9300 . ?
C2 C3 1.360(11) . ?
C2 C3 1.360(11) 11_575 ?
C2 C4 1.380(12) 13_565 ?
C2 C4 1.380(12) 7_545 ?
C3 C4 1.422(12) . ?
C3 C4 1.445(16) 7_545 ?
C3 C3 1.93(2) 11_575 ?
C3 C3 1.99(2) 7_545 ?
C3 H3 0.930(18) . ?
C4 C4 1.93(2) 11_575 ?
C4 H4 0.94(2) . ?

loop_
_geom_angle_atom_site_label_1
_geom_angle_atom_site_label_2
_geom_angle_atom_site_label_3
_geom_angle
_geom_angle_site_symmetry_1
_geom_angle_site_symmetry_3
_geom_angle_publ_flag
N1 Ni1 N1 88.13(19) . 12_655 ?
N1 Ni1 N1 91.87(19) . 4_566 ?
N1 Ni1 N1 180.00(13) 12_655 4_566 ?
N1 Ni1 N1 180.0 . 9_666 ?
N1 Ni1 N1 91.87(19) 12_655 9_666 ?
N1 Ni1 N1 88.13(19) 4_566 9_666 ?
N1 Ni1 Cl1 87.84(9) . 9_666 ?
N1 Ni1 Cl1 87.84(9) 12_655 9_666 ?
N1 Ni1 Cl1 92.16(9) 4_566 9_666 ?
N1 Ni1 Cl1 92.16(9) 9_666 9_666 ?
N1 Ni1 Cl1 92.16(9) . . ?
N1 Ni1 Cl1 92.16(9) 12_655 . ?
N1 Ni1 Cl1 87.84(9) 4_566 . ?
N1 Ni1 Cl1 87.84(9) 9_666 . ?
Cl1 Ni1 Cl1 180.0 9_666 . ?
Ni1 Cl1 Ni1 93.38(7) . 2_655 ?
C1 N1 N1 107.4(2) . 11_575 ?
C1 N1 Ni1 131.2(3) . . ?
N1 N1 Ni1 121.31(9) 11_575 . ?
C1 N2 C1 106.0(5) 11_575 . ?
C1 N2 C2 127.0(2) 11_575 . ?
C1 N2 C2 127.0(2) . . ?
N1 C1 N2 109.6(4) . . ?
N1 C1 H1 125.2 . . ?
N2 C1 H1 125.2 . . ?
C3 C2 C3 90.5(11) . 11_575 ?
C3 C2 C4 123.5(7) . 13_565 ?
C3 C2 C4 63.7(7) 11_575 13_565 ?
C3 C2 C4 63.7(7) . 7_545 ?
C3 C2 C4 123.5(7) 11_575 7_545 ?
C4 C2 C4 89.0(11) 13_565 7_545 ?
C3 C2 N2 119.1(6) . . ?
C3 C2 N2 119.1(6) 11_575 . ?
C4 C2 N2 117.4(6) 13_565 . ?
C4 C2 N2 117.4(6) 7_545 . ?
C2 C3 C4 119.6(9) . . ?
C2 C3 C4 58.8(7) . 7_545 ?
C4 C3 C4 91.9(9) . 7_545 ?
C2 C3 C3 44.8(5) . 11_575 ?
C4 C3 C3 90.0(7) . 11_575 ?
C4 C3 C3 90.0(6) 7_545 11_575 ?
C2 C3 C3 88.7(8) . 7_545 ?
C4 C3 C3 46.5(6) . 7_545 ?
C4 C3 C3 45.5(6) 7_545 7_545 ?
C3 C3 C3 90.001(1) 11_575 7_545 ?
C2 C3 H3 123(3) . . ?
C4 C3 H3 117(3) . . ?
C4 C3 H3 122(3) 7_545 . ?
C3 C3 H3 135(3) 11_575 . ?
C3 C3 H3 135(3) 7_545 . ?
C2 C4 C3 116.8(9) 13_565 . ?
C2 C4 C3 57.5(7) 13_565 7_545 ?
C3 C4 C3 88.1(9) . 7_545 ?
C2 C4 C4 45.5(5) 13_565 11_575 ?
C3 C4 C4 90.0(7) . 11_575 ?
C3 C4 C4 90.0(6) 7_545 11_575 ?
C2 C4 H4 124(4) 13_565 . ?
C3 C4 H4 119(4) . . ?
C3 C4 H4 126(4) 7_545 . ?
C4 C4 H4 132(4) 11_575 . ?

_refine_diff_density_max         0.867
_refine_diff_density_min         -0.391
_refine_diff_density_rms         0.113

_shelx_res_file                  
;
TITL shelxt_a.res in Imma
    platon_sq.res
    created by SHELXL-2018/3 at 15:20:41 on 31-May-2020
REM Old TITL sg74 in Imma
REM SHELXT solution in Imma: R1 0.158, Rweak 0.018, Alpha 0.028
REM <I/s>   0.440 for   41 systematic absences,  Orientation as input
REM Formula found by SHELXT:  C4 N10 Cl Ni
CELL  0.71073  21.2773   7.0742  15.8543   90.000   90.000   90.000
ZERR   4.000   0.0047   0.0021   0.0047    0.000    0.000    0.000
LATT  2
SYMM -X, 1/2-Y, Z
SYMM -X, 1/2+Y, -Z
SYMM X, -Y, -Z
SFAC C H N CL NI
UNIT 40 32 24 8 4
LIST 4
TEMP 26.430
L.S. 60
BOND $H
ACTA
FMAP 2
FLAT C2 C3 C4 H3 H4
DFIX 0.93 C3 H3 C4 H4
DANG 2.02 H3 C2 H3 C4 H4 C3
ISOR 0.01 C3 C4
isor 0.005 Cl4 CL3
PLAN -20
ABIN
sump 1.0 0 1.0 2 1.0 3 1.0 4
WGHT    0.109200    9.301600
FVAR       0.15773   0.73306   0.18381   0.08314
NI1   5    0.500000    0.500000    0.500000    10.25000    0.00578    0.01017 =
         0.01568    0.00094    0.00000    0.00000
CL1   4    0.500000    0.250000    0.394842    10.25000    0.02629    0.01652 =
         0.01581    0.00000    0.00000    0.00000
PART 1
CL2   4    0.285129    0.750000    0.539955    20.25000    0.04556    0.07202 =
         0.06944    0.00000    0.01181    0.00000
PART 2
CL3   4    0.244567    0.750000    0.556057    30.25000    0.06563    0.05784 =
         0.07766    0.00000   -0.00053    0.00000
part 3
CL4   4    0.290032    0.750000    0.603702    40.25000    0.01325    0.00994 =
         0.03009    0.00000    0.00647    0.00000
PART 0
N1    3    0.432102    0.652598    0.434976    11.00000    0.01390    0.01186 =
         0.02932   -0.00198   -0.00642    0.00117
N2    3    0.355163    0.750000    0.356041    10.50000    0.02297    0.02239 =
         0.04683    0.00000   -0.02677    0.00000
C1    1    0.385392    0.597236    0.387607    11.00000    0.01982    0.01844 =
         0.04711   -0.00180   -0.01827   -0.00205
AFIX  43
H1    2    0.374557    0.472046    0.377163    11.00000   -1.20000
AFIX   0
C2    1    0.300783    0.750000    0.301978    10.50000    0.02906    0.03062 =
         0.05648    0.00000   -0.03391    0.00000
C3    1    0.256424    0.886568    0.312248    10.50000    0.04039    0.04016 =
         0.05724   -0.01730   -0.03747    0.00746
C4    1    0.202133    0.886733    0.259965    10.50000    0.04058    0.04355 =
         0.06934   -0.01427   -0.03771    0.01457
H3    2    0.258542    0.979142    0.353790    10.50000   -1.20000
H4    2    0.170325    0.975002    0.270568    10.50000   -1.20000
HKLF 4




REM  shelxt_a.res in Imma
REM wR2 = 0.1595, GooF = S = 0.934, Restrained GooF = 0.940 for all data
REM R1 = 0.0486 for 908 Fo > 4sig(Fo) and 0.0676 for all 1176 data
REM 84 parameters refined using 32 restraints

END

WGHT      0.0941      3.4208

REM Highest difference peak  0.867,  deepest hole -0.391,  1-sigma level  0.113
Q1    1   0.2343  0.6987  0.6085  11.00000  0.05    0.87
Q2    1   0.2974  0.7500  0.6418  10.50000  0.05    0.71
Q3    1   0.2289  0.7500  0.5345  10.50000  0.05    0.62
Q4    1   0.2799  0.7500  0.5808  10.50000  0.05    0.62
Q5    1   0.3026  0.6858  0.5253  11.00000  0.05    0.48
Q6    1   0.3300  0.7500  0.7351  10.50000  0.05    0.45
Q7    1   0.5000  0.4009  0.6139  10.50000  0.05    0.41
Q8    1   0.5000  0.3999  0.5696  10.50000  0.05    0.39
Q9    1   0.5000  0.1752  0.4553  10.50000  0.05    0.37
Q10   1   0.5000  0.4492  0.3625  10.50000  0.05    0.34
Q11   1   0.5000  0.2500  0.5307  10.25000  0.05    0.33
Q12   1   0.3076  0.7500  0.2059  10.50000  0.05    0.33
Q13   1   0.5000  0.4670  0.4184  10.50000  0.05    0.31
Q14   1   0.5000  0.1858  0.3277  10.50000  0.05    0.30
Q15   1   0.4692  0.2500  0.5781  10.50000  0.05    0.30
Q16   1   0.4335  0.6583  0.3287  11.00000  0.05    0.30
Q17   1   0.3843  0.6757  0.3316  11.00000  0.05    0.29
Q18   1   0.3879  0.7500  0.6111  10.50000  0.05    0.28
Q19   1   0.3542  0.6791  0.2933  11.00000  0.05    0.27
Q20   1   0.3301  0.7500  0.3356  10.50000  0.05    0.26
;
_shelx_res_checksum              81850

_shelx_hkl_file                  
;
   0  -2   0  513.12   21.68
   0   2   0  529.18   21.74
   0  -4   0  224.61   10.76
   0   4   0  228.48   11.08
   0  -6   0    5.79    3.87
   0   6   0    8.47    5.18
   0   8   0  213.49   15.50
   0   3  -1  181.02    8.64
   0   3   1  181.07    8.55
   0  -3   1  179.32    8.44
   0  -3  -1  176.41    8.47
   0   5  -1   16.48    4.35
   0  -5   1   22.19    3.56
   0  -5  -1   24.31    3.50
   0   5   1   19.49    4.28
   0  -7   1   12.02    5.55
   0   2   2   89.97    4.64
   0  -2   2   85.69    4.64
   0   2  -2   89.27    4.52
   0  -4   2   98.03    6.08
   0   4   2  110.67    6.59
   0   4  -2  107.01    6.72
   0  -6   2  121.26    8.42
   0   6   2  118.60   10.66
   0   8  -2   25.74    8.98
   0  -8   2   29.82    7.62
   0   8   2   14.38    8.34
   0  -1   3   78.65    4.19
   0   1  -3   81.66    4.26
   0   3   3  194.83    9.23
   0  -3   3  195.25    9.37
   0   3  -3  202.77    9.56
   0  -5   3  122.90    7.57
   0  -7   3    5.31    5.24
   0   0  -4   32.60    2.90
   0   0   4   29.09    2.64
   0  -2   4  344.20   15.07
   0   2  -4  352.75   15.18
   0  -4   4   50.18    4.27
   0   4   4   46.21    4.53
   0   4  -4   49.87    5.25
   0  -6   4  188.87   10.88
   0  -8   4    5.51    6.80
   0   8   4    4.32    8.91
   0   1   5   31.60    3.25
   0  -1   5   32.10    2.94
   0   1  -5   32.08    2.70
   0  -3   5   88.44    5.40
   0   3  -5   83.33    5.85
   0  -5   5   73.02    6.16
   0   5  -5   73.92    6.49
   0   5   5   73.48    6.96
   0   7   5    3.63    6.98
   0   0  -6    1.96    2.19
   0   0   6    4.97    1.97
   0   2   6  230.33   11.27
   0  -2   6  234.21   10.69
   0   2  -6  221.69   10.86
   0   4  -6  186.56    9.97
   0  -4   6  187.13    9.82
   0   4   6  191.47   10.08
   0  -6   6   70.84    6.90
   0  -1   7   15.14    2.72
   0   1   7   14.03    2.92
   0   1  -7   19.12    3.12
   0  -3   7   85.31    5.65
   0   3  -7   87.13    6.56
   0  -5   7    5.10    3.79
   0   5  -7    4.71    4.70
   0   5   7    3.69    4.31
   0   7   7  -17.20    6.73
   0  -7   7    2.17    5.81
   0   7  -7   -2.15    7.89
   0   0   8   60.99    4.91
   0   0  -8   75.43    5.57
   0   2   8  200.02   10.85
   0  -2   8  214.20   10.37
   0   2  -8  213.27   10.73
   0  -4   8  153.53    9.03
   0   4  -8  158.25   10.21
   0  -6   8   -4.16    4.61
   0  -1   9   10.62    2.83
   0   1  -9   11.46    3.71
   0   1   9   13.08    3.20
   0  -1  -9   12.28    3.84
   0   3  -9    4.87    4.14
   0   3   9   -1.24    3.67
   0  -3   9    0.27    3.00
   0  -5   9    2.67    4.12
   0   5   9   12.40    5.39
   0  -7   9   12.09    6.61
   0   7   9    5.71    7.26
   0   7  -9   -3.57    8.40
   0   0 -10  137.27    9.01
   0   0  10  153.31    8.43
   0   2 -10   93.11    7.80
   0  -2  10   90.06    6.52
   0   2  10   93.40    7.35
   0   4  10  108.43    9.80
   0  -4  10  110.28    8.19
   0   4 -10  124.45   10.14
   0   6  10   -1.34    6.88
   0  -6  10    2.65    5.64
   0  -1 -11   56.89    6.70
   0  -1  11   54.19    5.17
   0   1  11   43.33    5.31
   0   1 -11   43.14    6.06
   0   3  11   19.82    5.43
   0  -3  11   22.24    4.68
   0   3 -11   36.66    6.17
   0  -5  11    2.28    4.98
   0   5  11   -8.80    7.49
   0   0 -12   20.88    5.49
   0   0  12   26.25    4.69
   0   2 -12   90.87    9.62
   0   2  12  122.63    8.93
   0  -2  12   99.39    7.65
   0  -4  12   24.40    5.63
   0   4  12   27.82    7.56
   0  -6  12   68.55    8.59
   0   6 -12   61.28   10.57
   0   6  12   60.14    9.64
   0   6  12   51.31    9.89
   0   1 -13   45.39    7.08
   0   1  13   47.19    6.17
   0  -1  13   47.39    5.84
   0  -3  13   15.77    5.28
   0   3  13    9.88    6.34
   0   5  13    0.96    7.60
   0   5  13    2.14    7.95
   0  -5  13   -0.77    5.91
   0   5 -13   10.06    8.72
   0   0  14   24.87    5.68
   0  -2  14   85.52    8.17
   0   2  14   81.01    8.75
   0   4  14   17.00    8.12
   0  -4  14    8.85    6.71
   0   1  15    6.91    5.68
   0  -1  15    1.16    5.01
   0   3  15   44.52    7.93
   0   5  15   23.67    9.88
   0  -5  15   16.58    7.94
   0   0  16   67.12    8.76
   0   2  16   42.87    8.80
   0  -2  16   62.30    8.06
   0   4  16   -1.15    8.44
   0  -4  16    7.42    7.63
   0   4 -16   -1.64   10.70
   0   1  17   42.17    8.47
   0   1 -17   10.45    9.28
   0  -1  17   12.99    7.03
   0  -3  17   21.82    7.97
   0   3  17   11.18    8.89
   0   3 -17   11.11   11.44
   0   0  18   65.11    9.63
   0   0 -18   59.63   11.53
   0  -2  18   11.96    7.84
   0   2  18    5.00    8.96
   1   1   0   -0.52    0.51
  -1  -1   0    0.12    0.76
  -1   1   0   -0.59    0.63
   1   3   0    0.54    1.67
  -1  -3   0    1.61    1.49
  -1   3   0   -1.73    1.87
   1  -3   0   -1.88    1.24
  -1   5   0   -4.40    3.33
   1  -5   0   -2.98    2.53
   1   5   0    0.89    3.64
  -1  -5   0   -2.05    2.54
  -1   2   1   27.67    2.39
   1  -2   1   28.96    2.52
   1   2  -1   29.98    2.48
   1   2   1   26.56    2.38
   1  -2  -1   26.52    2.44
  -1   2  -1   33.01    2.62
  -1  -2   1   26.34    2.41
   1  -4   1  100.42    6.10
  -1   4   1  116.68    6.65
   1   4  -1  100.51    6.46
   1  -4  -1  103.99    6.16
   1   4   1  111.48    6.55
  -1   4  -1  102.22    6.50
  -1  -4   1  103.90    6.10
   1   6  -1   33.65    6.02
   1  -6   1   30.05    4.89
  -1   6   1   41.85    6.16
  -1  -6   1   33.68    4.98
  -1   6  -1   34.49    6.03
   1   6   1   40.46    5.77
   1   8  -1   93.04   11.18
  -1   8   1   96.20   11.15
  -1   8  -1  108.71   11.22
   1   8   1   84.23   10.67
   1  -1   2   37.95    2.62
   1   1  -2   40.49    2.45
  -1  -1   2   39.24    2.45
  -1   1  -2   39.17    2.36
  -1   3   2   96.60    5.68
   1  -3   2  104.89    5.62
   1   3  -2  103.77    5.72
   1   3   2  100.83    5.59
  -1  -3   2   99.74    5.49
  -1   3  -2  104.16    5.77
   1   5  -2   46.52    5.54
   1  -5   2   46.44    4.82
  -1   5   2   44.88    5.39
  -1   5  -2   38.91    6.08
  -1  -5   2   44.37    4.50
   1   5   2   45.91    5.67
   1  -7   2    1.84    4.88
  -1  -7   2    1.42    4.95
  -1   0   3  397.03   16.47
  -1   0  -3  393.81   16.53
   1   0   3  387.75   16.53
   1   0  -3  398.34   16.48
  -1   2   3  254.46   11.57
   1  -2   3  264.73   11.68
   1   2  -3  263.81   11.67
  -1   2  -3  272.85   11.75
  -1  -2   3  268.01   11.59
   1   4  -3   40.50    4.38
   1  -4   3   41.03    4.18
  -1   4   3   44.55    4.19
   1   4   3   45.51    4.64
  -1   4  -3   45.55    4.48
  -1  -4   3   41.06    3.90
  -1   6   3  156.63   11.01
   1  -6   3  176.64   10.18
  -1  -6   3  172.40   10.11
   1  -8   3   22.21    7.36
   1   8  -3   11.21    8.82
  -1   8   3    8.60    7.71
  -1  -8   3   13.42    7.39
  -1   8  -3    4.02    8.34
   1   8   3   25.21    8.77
   1  -1   4   24.51    2.41
   1   1  -4   23.03    2.35
  -1   1   4   24.47    2.62
  -1  -1   4   28.79    2.40
   1   1   4   22.16    2.66
  -1   1  -4   25.81    2.43
   1  -3   4  106.98    6.04
  -1   3   4  105.26    6.13
   1   3  -4  111.94    6.31
  -1  -3   4  110.92    6.02
   1   3   4  110.90    6.13
  -1   3  -4   99.91    6.32
  -1   5   4   73.65    6.84
   1  -5   4   86.80    6.37
   1   5  -4   74.75    7.38
  -1  -5   4   87.97    6.22
   1   5   4   72.96    6.85
  -1   5  -4   81.59    7.33
  -1   7   4   18.71    6.70
  -1  -7   4    5.90    5.58
  -1   0   5   85.86    4.74
   1   0  -5   87.92    4.81
   1   0   5   87.42    4.86
  -1   0  -5   78.92    4.83
   1  -2   5  378.20   16.50
   1   2  -5  379.52   16.53
  -1  -2   5  387.59   16.41
  -1   2  -5  369.81   16.58
   1  -4   5  108.07    6.81
   1   4  -5  107.74    7.41
  -1   4   5  102.48    7.04
   1   4   5  110.26    6.91
  -1  -4   5  109.20    6.62
  -1   4  -5  125.78    7.63
   1  -6   5  135.63    9.23
  -1   6   5  145.25    9.90
  -1  -6   5  125.61    8.89
   1  -8   5    3.74    7.44
  -1  -8   5   14.97    7.38
   1   1  -6   30.05    3.08
  -1   1   6   22.31    2.85
   1  -1   6   30.10    2.95
  -1  -1   6   28.58    2.96
  -1   1  -6   33.11    3.22
   1   1   6   23.35    3.12
   1  -3   6   22.55    3.13
   1   3  -6   24.90    3.74
  -1   3  -6   40.09    4.16
  -1  -3   6   30.66    3.28
  -1   5   6    3.09    3.63
   1  -5   6   -0.88    3.01
   1   5  -6   -1.33    4.47
  -1  -5   6    1.35    3.22
  -1   5  -6    2.74    4.39
   1   5   6   -1.20    3.91
  -1   7   6   -0.22    6.77
   1   7  -6    2.55    8.65
   1  -7   6   -9.16    4.98
   1   7   6   -2.15    6.04
  -1  -7   6    8.75    5.86
  -1   7  -6    9.72    7.57
   1   0  -7   97.19    6.13
  -1   0   7  103.69    5.81
   1   0   7   99.69    5.97
  -1   0  -7  100.32    6.25
   1   2  -7  183.06    9.05
   1  -2   7  170.96    8.79
  -1   2   7  174.24    9.26
  -1  -2   7  161.63    8.62
   1   2   7  178.44    9.43
  -1   2  -7  176.11    8.82
  -1   4   7  182.24   10.04
   1   4  -7  168.09   10.85
   1  -4   7  182.84    9.76
  -1  -4   7  189.26    9.70
  -1   4  -7  176.60   12.36
   1  -6   7   18.05    5.11
  -1  -6   7   16.69    4.78
   1   1  -8   15.11    3.36
  -1   1   8   13.84    3.01
   1  -1   8   15.98    2.88
   1  -1  -8    7.29    3.30
  -1   1  -8   14.93    3.56
  -1  -1   8   17.18    2.87
   1   1   8   13.22    2.93
  -1   3   8   48.96    5.58
   1   3  -8   42.17    5.12
   1  -3   8   47.30    4.57
  -1  -3   8   40.20    4.25
  -1   3  -8   41.11    5.00
   1   3   8   43.95    5.25
   1  -5   8   15.26    4.56
   1   5  -8   16.18    5.62
  -1   5   8   21.69    5.35
   1   5   8   15.58    5.95
  -1  -5   8   10.62    4.28
  -1   7   8   -1.80    6.22
   1   7  -8   -8.25    8.28
   1  -7   8    6.51    6.23
  -1   7  -8   22.78    7.84
  -1  -7   8    2.64    6.15
   1   7   8   21.61    7.45
   1   0   9  179.08    9.19
   1   0  -9  172.14    9.62
  -1   0   9  171.67    9.01
  -1   0  -9  166.37    9.54
  -1   2   9   83.27    6.55
   1  -2   9   83.56    5.95
   1   2  -9   86.98    6.66
  -1   2  -9   84.31    6.88
   1   2   9   79.32    6.62
  -1  -2   9   80.79    5.69
  -1   4   9  181.06   11.30
   1   4  -9  179.81   11.30
   1  -4   9  184.55   10.25
  -1   4  -9  169.19   11.29
  -1  -4   9  171.39    9.91
  -1   6   9   -0.07    5.80
  -1  -6   9    5.47    5.41
   1  -1  10   25.61    3.77
  -1  -1 -10   23.14    4.04
  -1   1  10   16.53    3.71
   1   1 -10   24.20    4.56
   1   1  10   21.78    4.01
  -1   1 -10   24.84    4.71
  -1  -1  10   19.60    3.52
   1  -1 -10   11.49    4.50
  -1   3  10    0.66    4.41
   1   3 -10    6.20    5.00
   1  -3  10   -1.94    3.40
  -1   3 -10    6.71    4.70
   1   3  10    4.96    4.14
  -1  -3  10    6.71    3.47
  -1   5  10    2.80    5.35
   1  -5  10   -3.73    4.51
  -1  -5  10    6.52    4.69
  -1   7  10  -12.46    7.28
   1  -7  10   -5.47    7.03
  -1  -7  10   -5.57    6.69
   1   0  11  100.40    7.12
   1   0 -11   92.90    8.30
  -1   0 -11   90.78    8.14
  -1   0  11  102.20    7.05
   1  -2  11   55.60    6.01
   1   2 -11   71.04    7.28
  -1   2  11   66.31    6.94
   1   2  11   68.69    6.75
  -1  -2  11   65.62    5.94
  -1   2 -11   62.29    6.99
   1  -4  11   86.37    7.87
  -1   4  11   84.61    8.74
  -1  -4  11   85.92    7.57
   1   4  11   78.12    8.81
   1   6 -11   23.83    8.98
   1  -6  11    8.63    6.46
  -1   6  11   11.34    7.34
  -1   6  11   26.26    8.60
  -1  -6  11   12.47    6.61
  -1   6 -11   30.92    8.19
   1   6  11   18.48    7.62
  -1   1  12   49.96    5.75
   1   1 -12   54.90    6.89
   1  -1  12   43.77    5.51
   1   1  12   57.85    6.41
   1  -1 -12   56.71    7.01
  -1   1 -12   51.30    6.69
  -1  -1  12   53.73    5.62
  -1   3  12   36.56    6.49
   1   3 -12   34.00    7.63
   1  -3  12   21.45    5.01
  -1  -3  12   33.09    5.13
   1   3  12   29.81    6.11
   1  -5  12   -3.24    6.44
  -1   5  12   10.08    7.32
  -1   5  12  -16.48    6.40
   1   5  12    7.22    6.85
  -1  -5  12   -2.61    5.43
   1   0  13   34.02    5.28
  -1   0 -13   30.35    6.82
   1   0 -13   25.48    6.59
  -1   0  13   25.04    5.31
  -1   2  13   84.12    8.78
   1  -2  13   79.03    7.90
  -1  -2  13   91.07    7.60
   1   2  13   81.58    8.26
  -1   2 -13   58.56   12.44
   1  -4  13   15.53    5.77
  -1   4  13    7.55    7.45
  -1  -4  13   10.91    5.73
  -1   6  13   71.43   10.42
   1  -6  13   83.68    9.94
  -1   6  13   56.50   10.67
  -1  -6  13   73.98    9.82
   1   6  13   83.99   11.44
   1  -1  14    0.56    4.77
  -1   1  14    9.98    5.36
  -1  -1  14    5.09    4.64
   1   1  14    4.55    5.30
  -1   3  14   14.69    7.30
   1  -3  14    6.32    5.50
   1   3  14    8.45    6.76
  -1  -3  14    1.67    5.17
  -1   5  14   -9.46    7.69
  -1   5  14   -2.99    7.85
   1  -5  14   -4.64    6.67
   1   5 -14   -1.57    9.82
   1   5  14   -0.92    8.07
  -1  -5  14    4.52    6.99
  -1   5 -14   -4.81    8.95
  -1   0  15   48.82    6.91
   1   0  15   37.97    6.75
   1  -2  15   64.10    7.72
  -1   2  15   63.05    8.50
  -1  -2  15   63.16    7.80
   1   2  15   84.23    8.97
   1  -4  15   -0.49    6.41
  -1   4  15   12.16    8.25
   1   4 -15   12.65    9.56
  -1   4 -15   -5.80    9.35
  -1  -4  15   10.83    6.82
   1   4  15  -12.79    8.05
   1  -1  16   13.12   10.26
   1   1  16   17.75    7.69
  -1  -1  16   19.29    6.97
  -1   1 -16    8.69    8.11
   1   3 -16   38.05    9.40
   1  -3  16   18.58    7.38
  -1   3  16   21.00    8.65
  -1  -3  16   24.16    7.12
   1   3  16   21.39    8.74
  -1   3 -16   14.74    8.99
   1   0 -17   57.79   11.20
   1   0  17   83.31    9.11
  -1   0  17   68.16    9.00
  -1   0 -17   61.76   11.70
   1   2 -17   21.90    9.62
   1  -2  17   21.49    6.99
  -1   2  17   30.74    8.74
  -1  -2  17   13.51    7.15
   1   2  17   22.32    8.82
  -1   2 -17   18.41    9.79
   1   1 -18    6.59   10.03
  -1   1  18    7.90    8.48
   1  -1  18    0.47    7.50
   1   1  18   11.44    8.43
  -1  -1  18   18.00    8.19
  -1   1 -18  -12.00    9.36
  -2   2   0  258.88   11.23
   2   2   0  260.34   11.14
   2  -2   0  256.92   11.21
  -2  -2   0  255.25   11.06
   2   4   0   70.49    5.36
  -2  -4   0   71.03    4.84
  -2   4   0   71.10    5.45
   2  -4   0   74.44    4.96
   2  -6   0  122.16    8.41
  -2   6   0  117.10    9.21
   2   6   0  107.44    9.44
   2   8   0   50.61    9.95
  -2   8   0   34.40    9.35
  -2   1   1    5.39    1.03
   2   1  -1    4.34    0.88
   2  -1   1    3.26    1.15
  -2   1  -1    4.13    1.15
  -2  -1   1    3.32    0.83
   2  -1  -1    3.83    1.07
  -2   3   1   -1.75    1.83
   2   3  -1    0.70    1.87
   2  -3   1    0.84    1.68
  -2   3  -1    2.65    1.84
   2   3   1    2.58    1.75
   2  -3  -1    2.04    1.77
  -2  -3   1    1.67    1.59
   2  -5   1   19.60    3.64
  -2   5   1   27.23    4.58
   2   5  -1   14.58    4.33
   2   5   1   25.53    4.43
  -2  -5   1   27.50    3.71
   2  -5  -1   22.90    3.78
  -2   5  -1   16.85    4.27
   2  -7   1   32.87    5.96
  -2   7  -1   -3.13    6.87
  -2   0   2  401.61   16.73
  -2   0  -2  428.82   16.87
   2   0   2  394.02   16.90
  -2   2   2  248.70   11.19
   2   2  -2  264.11   11.21
   2  -2   2  263.01   11.32
  -2   2  -2  259.41   11.36
   2  -2  -2  254.46   11.20
  -2  -2   2  251.38   11.09
   2   4  -2   28.56    3.81
  -2   4   2   33.07    3.88
   2  -4   2   33.06    3.63
  -2   4  -2   30.07    3.96
   2   4   2   27.47    3.56
   2  -4  -2   29.95    3.38
  -2  -4   2   30.61    3.33
   2  -6   2   50.58    5.92
   2   6  -2   68.77    7.28
  -2   6   2   66.07    7.05
  -2   6  -2   68.45    7.48
  -2  -6   2   65.12    6.38
   2   6   2   58.08    6.81
   2  -8   2   72.69    8.88
  -2   8   2   67.46    9.74
   2   8  -2   52.50   10.16
  -2   8  -2   51.20    9.93
   2   8   2   58.53    9.52
   2   1  -3  293.49   12.46
  -2   1   3  295.55   12.67
   2  -1   3  291.41   12.56
  -2   1  -3  292.76   12.58
  -2  -1   3  291.09   12.40
   2  -3   3   45.27    3.36
  -2   3   3   43.94    3.86
   2   3  -3   43.91    3.75
  -2   3  -3   41.22    3.56
   2   3   3   49.25    3.83
  -2  -3   3   43.88    3.43
   2  -5   3   43.64    4.51
  -2  -5   3   35.20    4.16
   2   5   3   38.39    5.51
  -2   7   3    3.11    6.14
  -2   7  -3    5.63    6.30
  -2  -7   3   -3.58    5.09
   2   0  -4    3.17    1.60
  -2   0  -4    6.13    1.79
  -2   0   4    4.96    1.54
   2   0   4    3.26    1.63
   2   2  -4  389.43   16.20
   2  -2   4  372.44   16.23
  -2   2  -4  371.93   16.18
  -2  -2   4  364.83   16.02
  -2   4   4   61.57    5.35
   2   4  -4   74.60    5.81
   2  -4   4   67.22    5.24
  -2   4  -4   79.60    6.16
   2   4   4   70.49    5.48
  -2  -4   4   63.51    4.85
   2   6  -4  146.25   10.80
   2  -6   4  155.80    9.70
  -2   6   4  150.15   10.56
  -2  -6   4  151.41    9.44
  -2   6  -4  149.25   11.03
  -2   8   4   26.35    8.32
   2  -8   4    5.31    7.09
  -2  -8   4   17.02    7.50
   2   1  -5  172.45    8.30
   2  -1   5  181.36    8.42
  -2   1   5  176.63    8.48
  -2   1  -5  179.44    8.53
   2   1   5  186.76    8.60
  -2  -1   5  176.08    8.22
  -2   3   5   24.89    3.34
   2   3  -5   35.74    3.70
   2  -3   5   32.75    3.50
  -2   3  -5   31.02    3.81
  -2  -3   5   29.48    3.11
   2  -5   5    2.80    2.97
   2   5  -5    7.30    4.22
  -2   5   5    0.35    3.84
  -2   5  -5    0.08    4.27
   2   5   5    4.22    3.95
  -2  -5   5   -0.19    2.95
   2  -7   5    3.21    5.24
   2   7  -5    2.69    7.37
  -2   7   5    9.28    6.61
  -2   7  -5    1.68    7.59
  -2  -7   5   16.37    5.89
   2   0  -6   13.87    2.47
  -2   0   6   13.19    2.21
   2   0   6   10.98    2.36
  -2   0  -6   12.15    2.59
   2  -2   6  386.57   16.96
   2   2  -6  375.24   16.95
  -2   2   6  390.57   17.36
  -2   2  -6  372.81   17.02
  -2  -2   6  398.73   16.81
  -2   4   6   72.55    6.05
   2   4  -6   68.57    6.84
   2  -4   6   60.88    5.35
  -2   4  -6   71.85    6.69
   2   4   6   66.43    6.11
  -2  -4   6   68.32    5.23
  -2   6   6   86.82    8.89
   2   6  -6   64.44    8.29
   2  -6   6   69.85    7.55
  -2  -6   6   84.44    7.52
   2   1  -7   88.59    5.55
   2  -1   7   82.82    5.32
  -2   1   7   75.77    5.54
   2  -1  -7   85.33    5.83
   2   1   7   88.65    5.60
  -2  -1   7   86.73    5.22
  -2   1  -7   83.67    5.71
   2  -3   7   47.91    4.61
   2   3  -7   47.60    4.92
  -2   3  -7   48.63    5.00
  -2  -3   7   44.82    4.23
   2   5  -7    9.29    5.46
  -2   5   7   18.28    4.89
   2  -5   7    9.31    3.75
  -2  -5   7   22.80    4.36
   2   5   7   17.08    4.92
  -2   5  -7   19.55    5.62
   2   7  -7    7.45    8.55
   2  -7   7    4.77    6.23
  -2   7   7    6.89    7.12
   2   7   7    4.36    6.94
  -2  -7   7    8.81    6.17
  -2   7  -7   15.87    8.67
   2   0   8  144.46    7.92
  -2   0   8  143.98    7.69
   2   0  -8  143.59    8.16
  -2   0  -8  147.43    8.29
   2   2  -8   64.82    5.41
  -2   2   8   53.94    5.09
   2  -2   8   60.64    4.85
  -2  -2   8   52.98    4.56
  -2   2  -8   58.00    5.63
   2   2   8   53.96    5.35
  -2   4   8  173.04   12.16
   2   4  -8  212.37   12.17
   2  -4   8  212.01   11.07
  -2  -4   8  219.36   10.77
  -2   4  -8  200.35   11.91
   2  -6   8   15.96    5.35
   2   6  -8    4.58    7.34
  -2  -6   8    3.39    5.02
   2  -1   9    7.22    2.82
  -2   1   9   14.39    3.20
   2   1  -9    9.37    3.41
   2  -1  -9   13.13    3.24
  -2  -1   9   10.70    2.90
  -2   1  -9   11.75    3.78
   2   1   9   14.84    3.41
   2  -3   9   16.34    3.84
  -2   3   9   21.91    4.64
   2   3  -9   16.79    4.60
  -2  -3   9   11.88    3.21
   2   3   9   17.90    4.75
  -2   3  -9   11.89    4.78
   2  -5   9    8.62    4.51
  -2   5   9   11.99    5.25
   2   5  -9   12.94    6.38
  -2  -5   9   12.06    4.57
  -2   7   9   18.43    7.43
   2  -7   9    5.65    6.70
   2   7  -9    5.09    8.33
  -2   7  -9   -3.54    7.74
  -2  -7   9   -6.69    6.46
   2   7   9    6.01    6.63
  -2   0  10  220.73   10.52
   2   0 -10  205.76   11.06
  -2   0 -10  190.78   11.10
   2   0  10  191.40   10.46
   2  -2  10   28.33    4.22
  -2   2  10   28.10    4.53
   2   2 -10   34.28    5.29
  -2  -2  10   31.74    3.99
  -2   2 -10   26.46    4.94
   2   2  10   24.38    4.79
  -2   4  10  154.28   11.54
   2   4 -10  180.19   11.61
   2  -4  10  176.11   10.56
   2   4  10  185.82   12.20
  -2   4 -10  174.39   11.65
  -2  -4  10  185.45   10.54
   2  -6  10   10.53    6.00
  -2   6  10    1.21    6.65
   2   6 -10    3.50    7.93
   2   6  10    7.73    7.29
  -2   6 -10   -3.81    8.33
  -2  -6  10    1.63    6.90
   2   1 -11   35.90    5.39
  -2   1  11   36.79    5.06
   2  -1  11   36.95    4.68
   2  -1 -11   29.09    5.99
  -2   1 -11   42.69    5.62
  -2  -1  11   35.92    4.58
   2   1  11   36.16    5.03
   2   3 -11   20.32    6.15
  -2   3  11    6.55    4.94
   2  -3  11   12.05    4.06
  -2  -3  11    8.47    3.89
  -2   3 -11    1.12    5.56
   2   3  11   15.91    5.42
   2  -5  11    1.27    5.17
   2   5 -11    5.60    6.47
  -2   5  11   -3.68    6.61
  -2  -5  11    3.51    4.99
   2   0  12  106.77    7.97
  -2   0 -12  107.49    9.44
   2   0 -12  102.53    8.98
  -2   0  12  104.52    7.71
  -2   2  12   26.23    5.89
   2   2 -12   35.56    6.77
   2  -2  12   27.97    5.05
   2   2  12   38.72    6.19
  -2  -2  12   28.22    4.87
  -2   2 -12   32.59    6.15
  -2   4  12   78.47    9.19
   2  -4  12   86.92    8.20
   2   4  12   64.18    8.96
  -2  -4  12   70.77    7.18
   2   6 -12   30.47    9.71
  -2   6  12   22.31    8.04
  -2   6  12   12.66    8.91
   2  -6  12   26.29    7.34
  -2   6 -12   30.90    9.51
  -2  -6  12   25.96    7.63
   2   6  12   22.18    8.66
   2   6  12   20.55    8.93
  -2   1  13   32.75    5.64
   2   1 -13   14.93    5.97
   2  -1  13   24.81    5.12
   2  -1 -13   29.78    6.75
   2   1  13   27.33    5.71
  -2   1 -13   27.79    6.57
  -2  -1  13   30.21    5.07
  -2   3  13    3.53    5.56
   2  -3  13    4.78    4.98
   2   3  13   -6.50    5.65
  -2  -3  13    4.86    4.73
   2   5 -13   -0.74    8.97
  -2   5  13    6.96    7.58
   2  -5  13   -2.38    6.17
  -2   5  13  -14.07    7.28
  -2   5 -13    9.67    8.97
  -2  -5  13    2.48    6.20
   2   5  13    0.72    7.09
   2   0  14   44.90    6.69
  -2   0  14   55.37    6.46
  -2   0 -14   45.57    7.91
   2  -2  14   74.25    7.55
  -2   2  14   87.95    9.09
  -2   2 -14   73.36    9.68
  -2  -2  14   76.65    7.95
   2   2  14   76.73    8.75
   2   4 -14   14.09    8.15
   2  -4  14    5.26    5.76
  -2   4  14   -0.63    7.36
  -2  -4  14   -2.53    5.90
  -2   4 -14    8.40    8.71
   2   4  14    0.92    7.40
   2  -1  15   -1.79    5.41
  -2   1  15    5.04    5.84
  -2  -1  15    3.31    5.26
   2   1  15    3.04    6.35
   2  -3  15   15.65    6.36
  -2   3  15   -0.60    6.88
   2   3 -15   -4.02    8.63
   2   3  15   11.98    7.73
  -2  -3  15   11.93    6.34
  -2   3 -15   -8.01    7.97
   2  -5  15   -4.58    7.49
  -2   5  15    1.84    8.42
  -2   5  15   13.10    9.68
   2   5  15  -10.62    8.90
  -2  -5  15   -3.37    7.42
  -2   0  16   49.36    7.36
  -2   0 -16   24.24    8.04
   2   0  16   36.65    8.41
   2   2 -16   24.34   10.26
   2  -2  16   39.04    7.20
  -2   2  16   31.10    8.36
  -2  -2  16   17.85    8.89
  -2   2 -16   50.66    9.76
   2   2  16   29.73    8.35
  -2   4  16   -6.99    9.03
   2  -4  16    1.17    7.23
   2   4  16   17.49    9.55
  -2  -4  16   12.57    7.23
   2  -1  17    0.85    7.05
   2   1 -17    5.66    8.77
  -2   1  17    5.04    7.87
  -2  -1  17   11.12    6.91
  -2   1 -17   16.19    8.75
   2   1  17    5.06    7.19
  -2   3  17    3.13    9.09
   2  -3  17    6.41    7.39
   2   3  17   26.22    9.39
  -2   3 -17   24.03   10.10
  -2  -3  17   13.32    7.76
   2   0 -18   49.33   11.27
   2   0  18  102.67   10.60
  -2   0 -18   75.89   12.21
  -2   0  18   95.28   10.32
  -2   2  18   13.21    9.73
   2  -2  18   -5.47    7.38
  -2  -2  18   -7.05    7.82
   2   2  18   14.30    9.17
  -3   1   0   -0.26    0.98
   3   3   0   -0.03    1.85
   3  -3   0    2.19    1.62
  -3   3   0    1.90    2.08
   3   5   0   -2.18    3.32
  -3   5   0   -0.13    3.80
   3  -5   0   -0.97    2.74
   3   7   0    1.89    6.57
   3   0   1  143.86    6.06
   3   2  -1  190.72    8.80
  -3   2   1  208.40    8.98
   3  -2   1  202.44    9.02
  -3  -2   1  195.79    8.72
   3  -2  -1  200.93    8.93
  -3   2  -1  204.22    9.02
   3   2   1  198.52    8.83
   3  -4   1  111.81    6.60
  -3   4   1  114.98    6.96
   3   4  -1  114.40    6.86
   3  -4  -1  114.89    6.67
  -3  -4   1  116.27    6.44
   3   4   1  121.17    6.92
  -3   4  -1  119.62    7.18
  -3   6   1   85.90    8.63
   3  -6   1   79.71    7.27
   3   6  -1   93.26    9.00
  -3   6  -1   83.95    8.64
   3  -6  -1   89.80    7.51
   3   6   1  100.53    9.20
   3  -8   1   54.45    8.06
   3   8  -1   47.68    9.30
  -3   8   1   44.29    9.07
   3   8   1   42.41    8.98
  -3   8  -1   31.19    9.26
   3   1  -2  600.36   24.75
   3  -1   2  606.98   24.97
  -3   1   2  602.19   24.79
  -3   1  -2  611.46   24.95
   3  -1  -2  603.26   24.83
  -3   3   2   59.73    4.37
   3   3  -2   61.81    4.22
   3  -3   2   60.26    4.30
  -3  -3   2   61.00    3.99
  -3   3  -2   63.58    4.53
   3  -3  -2   60.77    4.17
   3   3   2   62.95    4.19
  -3   5   2   80.24    6.76
   3   5  -2   71.49    7.28
   3  -5   2   70.39    5.99
  -3   5  -2   69.89    7.27
  -3  -5   2   68.39    5.41
   3  -5  -2   73.18    5.84
  -3   7   2   -1.67    7.36
  -3   7  -2    4.12    6.65
   3   0  -3  978.83   39.53
   3   0   3  983.98   39.67
  -3   0  -3 1000.00   39.67
  -3   0   3  916.68   39.42
  -3   2   3  150.09    7.04
   3   2  -3  142.85    6.98
   3  -2   3  145.57    7.03
  -3  -2   3  154.67    6.93
  -3   2  -3  151.31    7.25
  -3   4   3  139.83    7.69
   3   4  -3  138.73    7.70
   3  -4   3  128.92    7.38
   3   4   3  135.34    7.68
  -3   4  -3  126.29    7.87
  -3  -4   3  128.42    7.01
   3  -6   3   38.14    5.27
  -3   6   3   48.11    6.44
   3   6  -3   40.47    6.66
   3   6   3   36.13    5.85
  -3  -6   3   43.76    5.42
  -3   6  -3   47.84    6.80
  -3   8   3   44.97    8.64
   3   8  -3   37.88   10.65
   3  -8   3   46.33    8.06
  -3   8  -3   27.08    8.66
   3   8   3   43.56   13.76
   3   1  -4   53.29    3.32
   3  -1   4   56.79    3.63
  -3   1   4   56.57    3.58
  -3   1  -4   52.76    3.66
  -3  -1   4   54.68    3.10
  -3   3   4   18.54    2.75
   3  -3   4   18.24    2.78
   3   3  -4   19.80    2.88
  -3   3  -4   17.56    3.19
  -3  -3   4   21.41    2.50
   3   5  -4    7.33    4.31
   3  -5   4   -2.81    3.12
  -3   5   4    5.56    4.04
  -3  -5   4   -0.06    2.74
   3   5   4    2.58    3.82
  -3   5  -4    0.59    4.70
   3  -7   4   -3.57    4.92
  -3   7   4   -6.11    6.39
   3   7  -4    8.23    7.08
  -3   7  -4   -7.58    7.01
  -3  -7   4    5.74    5.30
   3   0  -5   26.69    2.87
   3   0   5   31.67    2.95
  -3   0  -5   29.36    2.92
  -3   0   5   24.83    2.47
   3   2  -5  573.99   24.37
   3  -2   5  570.04   24.49
  -3  -2   5  581.08   24.23
  -3   2  -5  580.94   24.54
  -3   4   5    7.42    2.92
   3  -4   5    4.57    2.82
   3   4  -5    8.80    3.55
  -3  -4   5    2.62    2.30
   3   4   5    7.78    3.20
  -3   4  -5    8.68    3.77
   3  -6   5   94.55    8.28
   3   6  -5  125.31   10.31
  -3   6   5  111.66    9.48
  -3  -6   5  116.57    8.12
  -3   6  -5  110.41   10.35
   3  -8   5    6.12    6.49
  -3  -8   5    3.73    7.50
   3   1  -6  107.11    5.85
   3  -1   6  104.00    5.88
  -3   1   6  115.26    5.95
   3   1   6  103.92    5.81
  -3  -1   6  107.31    5.62
  -3   1  -6  104.99    6.11
   3  -1  -6   99.11    6.13
  -3   3   6   11.97    2.61
   3  -3   6    8.37    2.54
   3   3  -6    9.93    3.08
  -3  -3   6   11.97    2.54
  -3   3  -6    7.84    3.02
   3   5  -6   13.24    5.29
  -3   5   6    8.17    4.19
   3  -5   6    8.89    3.62
  -3   5  -6    9.52    5.03
  -3  -5   6    6.34    3.44
   3   5   6   12.00    4.01
   3  -7   6   12.18    5.81
   3   7  -6   24.60    8.80
  -3   7   6   20.66    7.50
   3   7   6    5.86    6.64
  -3  -7   6   16.04    6.34
  -3   7  -6   33.62    8.18
  -3   0   7   40.65    3.68
   3   0  -7   47.25    4.37
   3   0   7   42.44    4.04
  -3   0  -7   46.03    4.51
   3   2  -7  157.30    8.75
   3  -2   7  170.42    8.78
  -3   2   7  171.96    9.11
  -3  -2   7  171.48    8.36
  -3   2  -7  174.86    9.10
   3   2   7  174.22    9.25
   3  -4   7   86.64    6.11
  -3   4   7   92.92    7.03
   3   4  -7   86.31    7.52
  -3  -4   7   89.81    6.41
  -3   4  -7   95.70    9.26
   3   6  -7   59.80    8.04
   3  -6   7   44.80    6.55
  -3  -6   7   52.93    6.38
  -3   1   8   36.99    4.07
   3  -1   8   36.88    3.51
   3   1  -8   38.91    4.24
  -3  -1   8   37.79    3.57
  -3   1  -8   39.85    4.52
   3  -1  -8   32.53    4.30
   3   1   8   37.40    4.15
   3   3  -8   14.85    3.99
   3  -3   8    8.79    2.68
  -3   3   8   11.66    3.79
  -3   3  -8    7.84    3.88
  -3  -3   8    5.51    2.76
  -3   5   8   14.82    4.87
   3  -5   8    8.72    4.51
   3   5  -8   15.40    5.67
  -3   5  -8   13.45    5.29
  -3  -5   8    7.74    3.92
   3  -7   8    0.31    6.14
  -3   7   8   19.03    7.24
   3   7  -8    8.74    8.91
   3   7   8    9.79    7.37
  -3  -7   8    7.15    6.12
  -3   7  -8    1.25    8.05
   3   0   9  168.69    9.16
  -3   0   9  175.20    8.92
   3   0  -9  173.50    9.57
  -3   0  -9  168.65    9.66
  -3   2   9   18.94    4.06
   3   2  -9   11.92    4.21
   3  -2   9   22.51    3.60
  -3   2  -9   19.82    4.23
  -3  -2   9   17.97    3.17
   3   2   9   21.74    4.01
  -3   4   9  222.09   11.78
  -3   4   9  216.44   12.65
   3  -4   9  212.88   11.49
   3   4  -9  195.15   12.53
  -3  -4   9  205.63   11.30
  -3   4  -9  206.05   12.57
   3  -6   9    8.03    5.67
   3   6  -9   21.40    7.53
  -3   6   9    1.82    6.59
  -3   6  -9   16.63    7.73
  -3  -6   9   16.96    5.56
   3   1 -10   12.76    4.24
   3  -1  10   13.35    3.40
  -3   1  10   12.87    3.44
   3  -1 -10    7.87    4.54
  -3   1 -10   14.32    4.56
  -3  -1  10   15.07    3.16
   3   1  10    9.64    2.84
   3   3 -10   -1.71    4.90
   3  -3  10   -1.12    3.34
  -3   3  10   -3.55    4.25
   3   3  10   -1.42    3.95
  -3  -3  10    0.85    3.07
  -3   3 -10   -3.94    4.77
  -3   5  10    3.70    5.56
   3   5 -10    7.65    6.82
   3  -5  10   -5.37    4.45
  -3   5  10   -4.72    6.00
  -3  -5  10   -0.82    4.34
   3  -7  10    1.11    7.14
  -3   7  10    5.26    6.97
  -3  -7  10   -5.21    7.09
   3   0 -11  163.06   10.81
  -3   0 -11  181.32   10.94
  -3   0  11  186.27    9.91
   3   0  11  164.02    9.89
   3  -2  11   14.50    4.17
   3   2 -11   19.34    5.42
  -3   2  11   15.56    4.54
  -3   2 -11   18.40    5.26
  -3  -2  11   17.48    3.86
   3   2  11   21.93    4.69
   3   4 -11  135.62   11.27
  -3   4  11  133.10   10.37
   3  -4  11  131.78    9.51
  -3   4  11  137.59   11.44
  -3   4 -11  146.80   11.60
   3   4  11  124.41   10.85
  -3  -4  11  136.88    9.40
   3   6 -11   11.73    9.06
  -3   6  11   15.14    8.33
   3  -6  11    0.05    6.25
  -3   6  11    6.46    7.38
   3   6  11    0.23    7.35
  -3   6 -11   15.00    9.12
  -3  -6  11   14.05    6.96
  -3   1  12   33.71    5.25
   3  -1  12   29.19    4.73
   3   1 -12   35.28    6.18
  -3  -1  12   31.07    4.61
   3   1  12   18.63    4.92
   3  -1 -12   26.95    6.55
  -3   1 -12   26.41    6.14
   3   3 -12    5.02    6.49
   3  -3  12   -0.55    4.42
  -3   3  12   -1.08    5.12
   3   3  12   -3.28    5.32
  -3   3 -12    6.45    6.21
  -3  -3  12    0.62    3.99
  -3   5  12   -1.60    7.24
   3  -5  12    3.42    5.57
   3   5 -12    9.70    7.31
  -3   5  12   -2.75    6.45
  -3   5 -12    8.13    8.62
  -3  -5  12   -0.36    5.65
   3   5  12    3.64    7.26
  -3   0 -13   91.35    8.77
   3   0 -13   77.05    8.55
  -3   0  13   84.90    7.29
   3   0  13   67.16    7.31
   3   2 -13   92.73    8.94
  -3   2  13  111.86    9.19
   3  -2  13   86.43    8.31
   3   2  13   93.57    9.26
  -3   2 -13  101.84    9.50
  -3  -2  13   98.35    8.34
   3   4 -13    6.74    7.39
  -3   4  13   18.24    7.26
  -3   4 -13    4.60    7.43
  -3  -4  13   -3.53    4.87
   3   4  13   -4.74   11.37
   3  -6  13   50.90    8.89
  -3   6  13   36.16   10.39
  -3   6  13   42.91    8.71
  -3  -6  13   33.60    8.52
   3   6  13   28.30    9.66
   3  -1  14   -4.43    4.66
   3   1 -14   -6.35    6.41
  -3   1  14   -6.30    4.81
  -3   1 -14    0.94    6.52
  -3  -1  14   -2.81    4.49
   3   1  14    1.82    5.33
   3  -3  14   -2.33    5.17
   3   3 -14    2.61    7.27
  -3   3  14    7.05    6.72
  -3  -3  14   -1.24    5.01
   3   3  14    3.19    8.35
   3   5 -14   -0.71    9.72
  -3   5  14   -3.35    8.44
   3  -5  14    7.86    6.55
  -3   5  14   -4.82    7.32
   3   5  14    9.65    8.04
  -3   5 -14   -7.95    8.87
  -3  -5  14    5.69    6.79
  -3   0  15   12.94    5.73
   3   0  15   17.72    5.51
   3  -2  15   80.51   10.89
  -3   2  15  109.97   11.05
   3   2 -15   93.26   10.44
  -3  -2  15  104.79    9.89
   3   4 -15   15.46    9.74
   3  -4  15    4.28    6.83
  -3   4  15    9.77    8.78
  -3  -4  15    2.06    6.81
   3   4  15   -4.53    7.78
  -3   4 -15   -0.63    9.33
  -3   1  16    7.70    6.75
   3  -1  16   10.13    6.00
   3   1 -16   -2.78    7.81
  -3   1 -16   10.72    8.69
   3   1  16   -7.12    6.27
  -3  -1  16   13.27    6.13
  -3   3  16  -16.14    7.54
   3   3 -16   16.11    9.71
   3  -3  16   14.07    6.83
  -3   3 -16  -11.96    8.92
   3   3  16    4.88    8.12
  -3  -3  16    4.46    7.06
  -3   0 -17   62.38   10.77
  -3   0  17   55.03    8.88
   3   0 -17   52.56   10.13
   3   0  17   62.10    8.51
   3   2 -17    1.19    9.50
   3  -2  17    5.63    6.61
  -3   2  17   11.19    8.05
   3   2  17    5.73    8.35
  -3   2 -17   13.51    8.79
  -3  -2  17   13.41    7.07
  -3   1  18    5.92    8.72
   3  -1  18   -2.82    7.12
  -3  -1  18   27.90    8.14
   3   1  18   25.29    8.53
  -3   1 -18   -9.51    8.96
   4  -2   0   11.85    1.78
  -4   2   0    9.67    1.69
   4   2   0    9.68    1.47
   4  -4   0  301.96   13.93
   4   4   0  305.06   14.01
  -4   4   0  301.47   14.13
   4   6   0   41.72    6.18
  -4   6   0   28.51    6.03
   4  -6   0   34.78    5.33
   4   8   0   39.45    9.64
  -4   8   0   66.98   10.13
  -4   1   1    9.58    1.20
   4   1  -1    9.54    0.96
   4  -1   1   11.49    1.56
   4  -1  -1    8.28    1.37
  -4   1  -1   13.82    1.46
  -4   3   1   33.77    3.38
   4   3  -1   37.39    3.46
   4  -3   1   36.74    3.47
  -4  -3   1   33.53    2.95
   4   3   1   35.63    3.26
  -4   3  -1   35.53    3.60
   4  -3  -1   35.29    3.33
   4  -5   1   16.20    3.65
   4   5  -1   22.05    4.36
  -4   5   1   19.10    4.44
   4   5   1   17.00    4.31
   4  -5  -1   22.41    3.76
  -4   5  -1   14.75    4.45
   4   7  -1   11.78    5.83
   4  -7   1    6.96    6.34
   4  -7  -1    4.83    6.76
   4   7   1    8.02    6.52
   4   0  -2  131.61    5.67
   4   0   2  136.39    6.07
  -4   2   2   30.08    2.59
   4  -2   2   35.89    2.86
   4   2  -2   29.99    2.52
   4  -2  -2   26.05    2.47
  -4   2  -2   28.72    2.87
  -4  -2   2   26.98    2.07
  -4   4   2  366.11   16.13
   4  -4   2  347.01   15.97
   4   4  -2  359.15   16.04
  -4   4  -2  349.83   16.16
   4  -4  -2  343.34   15.91
  -4  -4   2  350.33   15.57
   4   4   2  352.96   15.97
  -4   6   2   54.84    6.63
   4   6  -2   41.42    6.45
   4  -6   2   52.09    5.92
   4   6   2   44.73    6.43
  -4   6  -2   50.40    7.09
   4  -6  -2   43.95    5.68
   4   8  -2   52.73    9.94
  -4   8   2   50.76    9.06
   4  -8   2   45.23    8.03
   4   8   2   32.79    9.93
  -4   8  -2   35.27    9.06
   4   1  -3  654.75   26.98
   4  -1   3  658.75   27.25
  -4   1   3  704.10   27.02
  -4   1   3  617.02   27.13
  -4   1  -3  644.99   27.22
  -4  -1   3  663.94   26.85
   4  -3   3   17.60    2.68
   4   3  -3   18.61    2.65
  -4   3   3   12.80    2.58
  -4  -3   3   16.95    2.22
   4  -3  -3   16.66    2.52
  -4   3  -3   12.45    2.71
  -4   5   3   24.98    5.44
   4  -5   3   31.08    4.32
   4   5   3   31.65    4.81
  -4  -5   3   25.43    3.77
   4  -7   3   49.18    6.55
   4   7  -3   37.76    7.53
  -4   7  -3   31.20    7.37
   4   7   3   55.24    7.82
   4   0   4  498.63   20.97
  -4   0  -4  512.92   20.99
  -4   0   4  485.16   20.60
   4   0  -4  497.44   20.79
   4   2  -4  351.85   14.89
  -4   2   4  330.63   14.78
   4  -2   4  349.74   15.08
  -4  -2   4  339.49   14.63
  -4   2  -4  344.52   15.08
  -4   4   4   24.18    3.68
   4  -4   4   28.01    3.62
   4   4  -4   33.14    3.94
  -4   4  -4   23.90    4.26
   4   4   4   24.70    3.72
  -4  -4   4   25.71    3.18
   4   6  -4   43.44    7.02
   4  -6   4   41.87    5.62
  -4   6   4   39.91    6.28
  -4  -6   4   45.08    5.44
  -4   6  -4   41.59    6.75
   4   6   4   53.80    6.17
  -4   8   4   49.20    8.67
   4  -8   4   19.49    7.67
  -4   8  -4   34.69    9.99
   4   1  -5    8.92    1.78
   4  -1   5    9.40    2.16
  -4   1   5    7.49    1.95
  -4   1  -5    8.61    2.16
   4  -1  -5    8.80    2.17
   4   1   5   10.13    2.32
  -4  -1   5    7.15    1.47
   4   3  -5    2.02    2.48
   4  -3   5    0.43    2.00
  -4   3   5    1.19    2.20
  -4  -3   5    1.08    1.88
  -4   3  -5   -3.12    2.48
  -4   5   5    9.09    4.14
   4  -5   5    3.07    3.23
   4   5  -5    0.73    4.50
  -4  -5   5    4.80    3.37
  -4   5  -5    8.40    5.04
   4   5   5    8.27    4.02
   4  -7   5    2.16    5.47
   4   7  -5   10.49    7.65
  -4   7   5   12.52    6.90
   4   7   5    0.40    6.53
  -4  -7   5    0.85    5.37
  -4   7  -5    2.79    7.48
   4   0   6  163.50    8.03
  -4   0  -6  155.01    8.08
   4   0  -6  161.42    7.91
  -4   0   6  159.41    7.63
   4  -2   6  339.87   15.24
   4   2  -6  337.24   15.21
  -4   2   6  352.88   15.57
  -4  -2   6  335.96   14.92
  -4   2  -6  344.67   15.50
  -4   4   6    9.01    3.49
   4  -4   6    6.16    3.03
   4   4  -6   14.37    4.15
  -4   4  -6   12.66    4.14
  -4  -4   6   11.04    2.72
  -4   6   6   97.37    8.85
   4   6  -6  101.20   10.51
   4  -6   6   87.66    8.36
  -4  -6   6   91.32    7.60
  -4   6  -6   77.37   10.12
   4   6   6   92.60    9.40
  -4   1   7   63.42    4.44
   4  -1   7   56.78    4.61
   4   1  -7   54.39    4.55
  -4  -1   7   60.17    3.94
   4  -1  -7   57.73    5.01
   4   1   7   53.89    4.77
  -4   1  -7   55.90    4.87
   4  -3   7   -0.18    2.53
  -4   3   7   -0.95    3.12
   4   3  -7    5.20    3.28
  -4   3   7    2.50    2.68
  -4  -3   7    4.64    2.23
  -4   3  -7   -0.50    3.44
  -4   5   7   10.29    4.37
   4   5  -7   12.56    5.34
   4  -5   7    9.14    4.24
  -4   5  -7   11.78    5.58
   4   5   7    6.75    4.69
  -4  -5   7    8.58    3.49
   4  -7   7   29.92    6.49
  -4   7   7   23.51    7.69
   4   7  -7   14.70    8.98
  -4  -7   7   24.90    7.95
   4   7   7   26.28    7.24
  -4   7  -7   27.63    8.63
   4   0   8   31.12    3.75
  -4   0  -8   31.52    3.91
   4   0  -8   29.49    3.97
  -4   0   8   34.24    3.55
   4   2  -8   84.36    6.17
  -4   2   8   85.47    6.10
   4  -2   8   77.07    5.71
  -4  -2   8   78.41    5.14
   4   2   8   83.49    6.32
  -4   2  -8   87.23    6.44
  -4   4   8  101.78   10.75
   4   4  -8  110.90    8.80
   4  -4   8  105.65    7.73
  -4  -4   8  118.31    7.21
  -4   4  -8  119.86    8.87
   4   6  -8   66.76    8.80
  -4  -6   8   80.18    8.38
   4  -1   9   13.71    3.24
  -4   1   9   13.61    3.13
   4   1  -9   11.94    3.52
   4  -1  -9   14.52    4.03
  -4   1  -9   12.24    3.79
   4   1   9   14.09    3.46
  -4  -1   9   13.42    2.82
   4   3  -9    0.60    4.02
  -4   3   9    2.49    3.86
   4  -3   9    1.18    2.71
  -4   3  -9   -4.25    3.92
   4   3   9    9.14    4.20
  -4  -3   9    0.36    2.88
   4  -5   9    3.22    4.80
  -4   5   9   -0.16    4.68
   4   5  -9   10.83    6.63
  -4   5  -9    9.71    6.58
  -4  -5   9    2.50    4.00
   4   7  -9   23.98    9.66
  -4   7   9   13.54    6.98
   4  -7   9   -3.81    6.48
  -4   7  -9    0.91    8.24
   4   7   9    5.92    7.88
  -4  -7   9   -3.47    6.40
  -4   0  10  187.88    9.91
   4   0  10  198.39   10.43
  -4   0 -10  197.22   11.28
   4   0 -10  200.45   11.18
  -4   2  10    0.79    3.59
   4   2 -10    9.44    4.50
   4  -2  10   11.14    3.65
   4   2  10    8.52    4.21
  -4  -2  10    5.71    2.94
  -4   2 -10    6.70    4.54
  -4   4  10  200.92   11.18
  -4   4  10  191.97   11.98
   4   4 -10  174.26   11.88
   4  -4  10  165.99   10.74
  -4  -4  10  188.42   10.56
   4   4  10  173.77   12.24
  -4   4 -10  175.25   12.65
   4  -6  10   15.25    6.50
  -4   6  10   12.63    6.27
   4   6 -10   18.91    8.89
  -4   6 -10   20.23    8.49
   4   6  10    7.18    6.92
  -4  -6  10   12.14    6.17
   4  -1  11   27.11    4.27
   4   1 -11   25.35    5.14
  -4   1  11   23.27    4.29
  -4   1 -11   23.43    5.28
   4  -1 -11   17.86    7.17
  -4  -1  11   29.77    4.18
   4   1  11   17.16    4.30
   4   3 -11    0.26    5.38
   4  -3  11   -1.50    4.30
  -4   3  11   -1.08    4.67
  -4   3 -11   -2.15    5.76
  -4  -3  11    3.44    3.53
   4   3  11   10.33    5.56
   4   5 -11    5.24    7.29
  -4   5  11   10.35    6.92
  -4  -5  11   -5.68    4.58
  -4   5 -11    6.80    8.17
  -4   0 -12   76.56    7.94
   4   0  12   68.28    6.77
  -4   0  12   79.09    7.03
   4   0 -12   73.55    7.71
   4   2 -12  108.77    9.90
   4  -2  12   95.91    7.84
  -4   2  12  108.30    8.66
  -4  -2  12   98.52    7.62
  -4   2 -12  100.51    9.65
   4   2  12  107.11    7.88
   4  -4  12   23.71    5.86
   4   4 -12   23.23    7.95
  -4   4  12   15.73    6.92
  -4   4  12   30.80    6.30
  -4  -4  12   26.21    5.15
   4   4  12   22.05    6.66
  -4   6  12   26.02    7.43
   4  -6  12   31.01    7.56
  -4   6  12   15.15    8.95
   4   6 -12   28.24    9.53
   4   6  12   24.87    9.01
   4   6  12   20.90    8.97
  -4  -6  12   38.61    7.69
  -4   6 -12   30.37    9.47
  -4   1  13   -5.18    4.16
   4  -1  13    6.18    4.34
   4   1 -13    2.34    6.17
   4  -1 -13   -3.01    6.28
   4   1  13    1.13    4.31
  -4  -1  13    3.94    4.05
  -4   1 -13    2.85    5.82
  -4   3  13    6.11    6.08
   4  -3  13   -1.84    5.10
   4   3 -13    7.39    6.84
  -4  -3  13    1.14    4.33
   4   3  13    2.18    5.89
  -4   3 -13    6.43    6.99
  -4   5  13   18.27    8.55
   4  -5  13    7.68    6.25
   4   5 -13    3.00    9.31
  -4   5  13    4.87    7.16
  -4  -5  13   16.14    6.60
   4   5  13    0.71    7.91
  -4   5 -13    2.69    8.63
   4   0 -14   11.36    7.16
   4   0  14   16.47    5.52
  -4   0  14    3.58    4.58
  -4   0 -14   -1.16    6.75
   4   2 -14  142.92   12.68
  -4   2  14  174.97   11.81
   4  -2  14  163.45   11.12
  -4  -2  14  163.80   10.35
  -4   2 -14  133.74   12.51
   4   2  14  149.30   11.55
   4  -4  14   -3.27    6.26
   4   4 -14   -0.49    8.33
  -4   4  14    4.25    7.86
  -4   4 -14    4.49    8.92
  -4  -4  14    3.01    5.99
   4   4  14    0.45    7.45
  -4   1  15    9.85    6.17
   4  -1  15   -8.07    5.14
   4   1 -15    1.44    7.21
   4   1  15   -1.97    5.38
  -4  -1  15    4.27    4.86
   4  -1 -15   -8.65    7.10
   4   3 -15    2.39    7.96
  -4   3  15    9.49   11.86
   4  -3  15    2.61    6.46
  -4   3 -15   12.23    8.70
  -4  -3  15   -8.23    5.54
   4   3  15  -10.83    7.35
  -4   0 -16   10.97    8.66
   4   0 -16   10.05    8.45
  -4   0  16   20.39    6.92
   4   0  16   18.24    7.08
  -4   2  16   65.89   13.70
   4  -2  16   41.64    7.45
   4   2 -16   57.52   10.07
  -4  -2  16   44.90    7.42
  -4   2 -16   46.45    9.93
   4   2  16   66.58    9.69
   4  -4  16    0.64    7.50
  -4   4  16   13.88    9.71
  -4   4 -16    6.79   11.52
   4   4  16   30.87    9.38
  -4  -4  16   11.88    8.25
   4  -1  17    3.12    6.31
  -4   1  17   12.59    7.65
   4   1 -17   17.69   10.10
  -4   1 -17   -6.70    9.18
  -4  -1  17   24.17    8.55
   4   1  17   36.53    8.00
   4  -3  17   -3.76    7.30
  -4   3  17    7.59    9.50
  -4  -3  17    0.45    7.56
  -4   3 -17   11.80   10.59
   4   3  17    3.44    8.84
   4   0  18   23.86    7.90
  -4   0  18   16.88    8.87
   4   0 -18   15.57   10.11
  -4   2  18    9.58    9.34
   4  -2  18   11.31    7.38
  -4  -2  18   19.14    8.98
   4   2  18    6.80    9.10
  -5   1   0   -0.05    0.89
   5  -1   0    0.83    1.21
  -5   3   0    1.60    2.15
   5   3   0   -2.61    1.71
   5  -3   0   -1.23    1.56
   5   5   0    1.21    3.74
   5  -5   0   -1.75    3.01
  -5   5   0   -0.88    3.98
   5   7   0   -1.43    6.56
   5  -7   0   -4.65    5.15
  -5   2   1    1.60    1.45
   5   2  -1    1.97    1.17
   5  -2   1    0.36    1.46
   5  -2  -1    1.13    1.33
  -5   2  -1    1.14    1.48
   5  -4   1  577.06   25.00
  -5   4   1  578.36   25.05
   5   4  -1  568.97   24.87
   5  -4  -1  575.74   24.84
   5   4   1  585.09   24.88
  -5   4  -1  579.06   25.04
   5  -6   1   19.75    4.51
  -5   6   1   14.91    5.31
   5   6  -1   13.27    5.68
   5  -6  -1   16.48    4.57
  -5   6  -1    2.32    5.29
   5   6   1    8.03    5.37
   5   8  -1   57.33    9.77
  -5   8   1   57.84    9.42
   5  -8   1   53.32    8.54
   5   8   1   60.88    9.96
  -5   8  -1   40.35    9.37
  -5   1   2  436.11   18.81
  -5   1   2  465.96   18.75
   5   1  -2  433.00   18.61
   5  -1   2  481.08   19.05
   5  -1  -2  448.30   18.81
  -5   1  -2  467.40   18.96
   5   3  -2    2.82    1.93
   5  -3   2    3.96    2.02
  -5   3   2    4.05    2.21
   5  -3  -2    4.20    1.96
  -5   3  -2    1.94    2.31
   5   3   2    2.86    1.91
  -5  -3   2    3.72    1.51
  -5   5   2    1.77    3.72
   5   5  -2    5.45    5.07
   5  -5   2    8.93    3.38
  -5   5  -2    8.03    4.78
   5  -5  -2    7.40    3.19
   5  -7   2   23.46    6.30
   5   7  -2   27.42    7.45
  -5   7  -2    4.25    7.26
   5   7   2   25.61    7.16
   5   0   3  285.49   11.57
   5   0  -3  271.36   11.30
  -5   0   3  250.73   11.02
   5  -2   3  353.03   15.00
  -5   2   3  343.58   14.75
   5   2  -3  337.67   14.66
   5  -2  -3  351.19   14.85
  -5   2  -3  337.86   14.96
  -5  -2   3  338.18   14.41
  -5   4   3   46.32    4.62
   5  -4   3   41.97    4.61
   5   4  -3   43.55    4.49
   5  -4  -3   53.88    4.49
  -5   4  -3   53.94    5.11
  -5  -4   3   45.82    3.88
   5   4   3   55.68    4.89
   5  -6   3   71.44    7.34
   5   6  -3   68.18    7.24
  -5   6   3   68.09    7.55
  -5   6  -3   71.17    7.88
   5   6   3   81.14    8.48
  -5  -6   3   68.03    6.49
  -5   8   3   19.72    7.96
   5  -8   3   17.09    7.30
  -5   8  -3   35.22    8.86
   5  -1   4  227.48   10.22
  -5   1   4  212.07    9.84
   5   1  -4  225.46    9.80
  -5   1   4  226.73    9.73
  -5  -1   4  220.95    9.57
  -5   1  -4  236.49   10.26
   5  -3   4   29.34    3.29
  -5   3   4   21.95    2.92
   5   3  -4   24.00    3.01
  -5   3  -4   24.40    3.42
  -5  -3   4   23.66    2.48
   5   5  -4    5.70    4.35
   5  -5   4    2.65    3.12
  -5  -5   4    5.50    3.19
   5   5   4   -0.63    3.88
  -5   5  -4    6.91    4.47
   5   7  -4   10.11    7.22
  -5   7   4    0.75    5.98
   5  -7   4    9.77    5.77
   5   7   4    9.53    6.46
  -5   7  -4   26.03    7.62
   5   0  -5  413.66   17.83
   5   0   5  427.65   18.02
  -5   0  -5  428.59   18.00
  -5   0   5  405.17   17.51
  -5   2   5  305.28   13.49
   5   2  -5  306.04   13.66
   5  -2   5  311.93   13.88
  -5   2   5  300.30   13.93
  -5  -2   5  323.52   13.36
  -5   2  -5  298.62   13.90
   5  -4   5   13.63    3.24
   5   4  -5   17.42    3.95
  -5   4   5   17.57    3.36
  -5  -4   5   15.41    2.75
  -5   4  -5   19.17    4.23
  -5   6   5   67.77    7.52
   5  -6   5   69.45    7.08
   5   6  -5   65.18    7.88
  -5   6  -5   83.81    8.43
  -5  -6   5   76.02    7.04
   5   6   5   66.95    7.40
   5   1  -6   11.00    2.35
   5  -1   6    9.55    2.29
  -5   1   6    5.00    1.97
  -5   1  -6    7.03    2.59
   5  -1  -6    6.08    2.49
  -5  -1   6    8.36    1.75
   5   1   6    7.39    2.42
   5   3  -6    0.89    2.97
  -5   3   6    1.23    2.30
   5  -3   6    0.08    2.47
  -5  -3   6    2.61    1.99
  -5   3  -6    2.63    3.13
  -5   5   6   27.89    5.02
   5  -5   6   32.73    5.11
   5   5  -6   38.35    6.11
  -5   5  -6   31.56    5.84
  -5  -5   6   29.73    4.17
   5   5   6   38.39    5.19
   5   7  -6   31.88    9.02
   5  -7   6   21.78    6.61
  -5   7   6   39.32    7.63
   5   7   6   33.73    7.25
  -5  -7   6   30.39    6.87
  -5   7  -6   14.58    8.08
   5   0   7  134.79    7.21
   5   0  -7  128.61    7.15
  -5   0  -7  127.05    7.37
  -5   0   7  130.61    6.63
   5   2  -7  170.11    8.55
   5  -2   7  164.84    8.64
  -5   2   7  155.67    8.61
  -5   2  -7  154.82    9.09
  -5  -2   7  163.98    7.89
   5   2   7  164.47    9.11
   5   4  -7   22.32    5.00
   5  -4   7   22.39    3.94
  -5   4   7   24.80    4.37
  -5  -4   7   26.36    3.60
   5   6  -7  122.39   11.22
   5  -6   7  117.32    9.42
  -5   6   7  112.09   10.09
   5   6   7  118.28   10.25
  -5  -6   7  126.30    8.68
   5  -1   8   17.55    3.17
   5   1  -8   12.26    3.37
  -5   1   8   19.22    3.17
  -5   1  -8   16.34    3.60
   5  -1  -8   19.05    3.66
  -5  -1   8   17.15    2.62
   5   1   8   12.47    3.11
   5   3  -8    1.86    3.89
  -5   3   8    0.71    3.48
   5  -3   8    2.42    2.99
  -5   3   8   -1.02    2.92
  -5   3  -8   -3.60    3.73
  -5  -3   8   -0.41    2.39
   5  -5   8    6.66    4.13
   5   5  -8    6.24    5.84
  -5   5   8    2.36    4.43
  -5  -5   8    1.56    3.68
  -5   5  -8    3.26    5.81
  -5   7   8   10.33    7.20
   5  -7   8   13.29    6.18
   5   7  -8   25.51    9.57
  -5   7  -8   15.07    7.95
   5   7   8    7.85    7.19
  -5   0  -9  154.69    9.27
   5   0  -9  166.53    9.20
  -5   0   9  162.64    8.44
   5   0   9  160.36    8.91
   5   2  -9    6.99    3.88
   5  -2   9   11.34    3.42
  -5   2   9   12.99    3.61
  -5   2  -9    8.35    4.29
   5   2   9   15.22    4.18
  -5  -2   9    8.90    2.65
   5  -4   9  173.93   10.57
  -5   4   9  170.42   10.50
   5   4  -9  183.20   11.68
  -5   4   9  185.92   11.35
  -5  -4   9  169.65    9.64
  -5   4  -9  183.20   11.71
   5  -6   9   45.20    6.83
   5   6  -9   37.63    8.36
   5   6   9   28.97    6.99
  -5   6  -9   39.84    8.39
  -5  -6   9   30.17    6.24
   5  -1  10   14.71    3.66
   5   1 -10    9.93    4.33
  -5   1  10   11.10    3.57
  -5   1 -10   18.52    4.62
  -5  -1  10   12.92    3.04
   5  -1 -10   11.57    4.51
   5   1  10   11.99    3.76
   5   3 -10   -1.06    4.90
   5  -3  10   -0.22    3.51
  -5   3  10   -9.57    4.16
  -5  -3  10   -0.90    3.04
  -5   3 -10   -1.57    5.06
   5   3  10    6.59    4.86
  -5   5  10   23.62    6.98
  -5   5  10    1.77    5.45
   5  -5  10    8.59    5.24
   5   5 -10   16.19    6.79
  -5  -5  10   13.74    4.46
   5   0 -11  168.31   10.38
  -5   0  11  159.54    9.02
   5   0  11  148.16    9.38
  -5   0 -11  149.72   10.30
  -5   2  11   45.66    5.83
   5   2 -11   45.72    6.27
   5  -2  11   42.42    5.40
  -5   2 -11   47.56    6.48
   5   2  11   33.90    5.83
  -5  -2  11   40.71    4.68
  -5   4  11   70.41    8.27
   5  -4  11   65.00    7.14
  -5   4  11   71.52    7.21
   5   4 -11   67.32    8.30
   5   4  11   67.13    8.44
  -5  -4  11   69.68    6.59
  -5   4 -11   60.02    8.62
  -5   6  11   13.06    8.25
   5  -6  11   16.69    6.42
  -5   6  11   19.99    7.39
   5   6 -11   22.17    9.10
  -5  -6  11   24.82    7.14
  -5   6 -11   29.18    8.43
   5   6  11   22.80    8.22
   5   1 -12    3.22    5.59
   5  -1  12    1.36    3.92
  -5   1  12   10.10    4.36
  -5   1 -12   11.66    5.56
   5  -1 -12    5.91    5.90
   5   1  12    6.07    4.31
  -5  -1  12   -3.56    3.04
  -5   3  12    2.85    5.48
   5  -3  12    6.26    4.74
   5   3 -12    7.48    6.49
  -5   3 -12    1.03    6.42
  -5  -3  12   -0.29    3.71
   5   3  12    9.90    5.93
   5   5 -12   26.63    8.53
   5  -5  12   26.15    6.56
  -5   5  12   17.86    7.85
  -5   5 -12   11.74    9.12
  -5  -5  12   16.63    6.01
   5   5  12   19.25    7.36
  -5   0 -13   15.01    6.36
  -5   0  13    7.32    4.18
   5   0 -13    4.62    5.84
   5   0  13    9.34    4.21
  -5   2  13  184.91   11.58
   5   2 -13  162.74   12.61
   5  -2  13  164.37   11.12
  -5   2 -13  180.20   12.82
  -5  -2  13  174.67   10.70
   5   2  13  179.52   12.06
   5   4 -13    6.60    7.93
   5  -4  13   21.97    6.57
  -5   4  13   12.83    6.80
  -5   4  13   11.77    7.14
  -5  -4  13    1.56    5.06
   5   4  13   -2.19    7.17
  -5   4 -13   -8.86    7.44
   5  -1  14    3.19    4.94
   5   1 -14    1.72    7.06
  -5   1  14    1.45    5.38
  -5  -1  14   -3.95    4.12
   5  -1 -14   -3.15    6.32
  -5   1 -14    3.12    6.76
   5   1  14   -2.42    4.68
   5  -3  14    1.28    9.32
   5   3 -14    2.60    8.00
  -5   3  14   20.55    7.16
   5   3  14   -3.04   10.62
  -5  -3  14    8.67    5.17
   5   5 -14   -9.69    9.83
   5  -5  14    1.16    6.95
  -5   5  14   -3.18    7.45
  -5   5  14    4.75    8.84
  -5   5 -14    9.68    9.78
   5   5  14   -6.03    8.47
  -5  -5  14    9.07    7.90
   5   0  15   16.10    5.93
   5   0 -15   21.32    8.27
  -5   0  15   18.25    5.82
  -5   0 -15    7.89    9.13
   5   2 -15  109.22   10.75
  -5   2  15  120.91   10.99
   5  -2  15  107.74   10.06
  -5  -2  15   81.38    8.90
   5   2  15   79.24    9.90
   5   4 -15   20.24    9.80
  -5   4  15    0.85    8.76
   5  -4  15   11.33    6.69
  -5   4  15   -1.09    7.79
  -5   4 -15  -12.36    8.99
  -5  -4  15    8.67    8.92
   5   4  15    7.67    8.50
   5  -1  16   14.93    6.21
   5   1 -16   23.56    9.10
  -5   1  16   31.63    7.18
  -5   1 -16   34.20    9.14
   5   1  16   17.65    6.64
  -5  -1  16   38.36    6.97
   5   3 -16   -2.84    9.83
  -5   3  16    6.24    8.50
   5  -3  16    8.98    6.77
  -5  -3  16   20.74    9.40
  -5   3 -16   -4.36    9.33
   5   3  16  -14.15    7.11
   5   0 -17    9.50    9.77
   5   0  17   23.01    7.63
  -5   2  17   23.38    8.67
   5  -2  17   23.19    7.26
   5   2 -17   19.08   10.48
  -5  -2  17   37.92    9.53
   5   2  17   21.66    8.49
   5  -1  18   -0.29    7.51
  -5   1  18   -4.36    8.53
  -5  -1  18    6.25    8.03
   5   1  18   -5.29    7.62
  -5   1 -18   11.88    9.21
   6  -2   0   30.39    2.73
  -6   2   0   34.65    2.88
  -6   4   0  670.82   28.78
   6  -4   0  658.14   28.75
   6   4   0  687.00   28.73
  -6   6   0    4.81    5.09
   6  -6   0   -4.71    3.71
   6   6   0   -0.57    5.18
  -6   8   0   57.24    9.77
   6  -8   0   78.79    9.64
  -6   1   1   13.73    1.31
  -6   1   1   15.42    1.34
   6  -1   1   14.76    1.57
  -6   1  -1   15.80    1.48
   6  -1  -1   11.52    1.64
   6   3  -1   29.96    3.25
  -6   3   1   31.92    3.24
   6  -3   1   31.82    3.35
  -6   3  -1   35.84    3.61
   6  -3  -1   30.56    3.11
   6   3   1   37.80    3.28
   6  -5   1   -1.93    3.09
  -6   5   1    2.53    4.03
   6   5  -1    5.68    3.97
  -6   5  -1    0.79    4.11
   6   5   1   -0.46    4.32
   6  -5  -1   -0.10    3.16
   6   7  -1   -0.48    6.53
   6  -7   1    5.74    5.53
   6   7   1    3.10    6.73
   6  -7  -1   -2.19    4.89
   6   0   2   50.39    2.98
   6   0  -2   43.46    2.08
   6   0  -2   49.91    2.13
   6  -2   2  309.54   13.57
  -6   2   2  315.35   13.34
   6   2  -2  298.77   13.15
   6  -2  -2  314.40   13.45
  -6   2  -2  312.31   13.56
   6   4  -2  141.51    8.20
   6  -4   2  152.17    8.07
  -6   4   2  140.16    8.13
   6   4   2  144.57    8.03
  -6   4  -2  141.33    8.61
   6  -4  -2  146.40    7.93
   6   6  -2   35.40    6.40
  -6   6   2   29.49    5.83
   6  -6   2   27.54    4.89
   6  -6  -2   31.80    5.45
   6   6   2   29.42    5.96
  -6   6  -2   33.93    6.48
   6  -8   2   33.43    7.44
  -6   8   2   12.47    8.23
  -6   8  -2   33.40    9.38
  -6   1   3  197.85    9.46
  -6   1   3  233.15    9.43
   6  -1   3  221.50    9.86
   6   1  -3  224.06    9.39
  -6   1  -3  228.04    9.85
   6   3  -3   -1.26    1.80
   6  -3   3    1.94    2.02
  -6   3   3    0.95    2.04
   6  -3  -3   -1.82    1.70
  -6  -3   3    0.83    1.49
  -6   3  -3    0.91    2.50
   6  -5   3    4.59    3.14
  -6   5   3    4.53    3.88
   6  -5  -3   -3.76    3.14
  -6  -5   3   -1.43    2.63
   6   5   3   -1.41    3.66
   6   7  -3   14.31    7.13
  -6   7   3    5.86    7.26
   6  -7   3    1.88    5.48
   6   7   3   -1.62    6.44
  -6   7  -3   -2.80    6.85
   6   0   4   83.90    4.61
  -6   0   4   81.69    3.72
   6   0  -4   80.98    4.27
   6   2  -4  480.97   20.35
  -6   2   4  474.46   20.33
  -6   2   4  482.59   20.72
   6  -2   4  499.34   20.73
  -6  -2   4  463.49   19.97
  -6   2  -4  493.19   20.69
   6   4  -4    4.40    3.17
  -6   4   4    6.36    3.14
   6  -4   4    3.11    2.76
  -6   4  -4    3.83    3.47
  -6  -4   4    3.30    2.17
   6  -6   4  137.94    9.49
  -6   6   4  121.66   10.51
   6   6  -4  138.29   10.77
  -6   6  -4  119.77   10.78
  -6  -6   4  132.08    8.84
   6   6   4  138.44   10.26
  -6   1   5    8.23    1.81
   6   1  -5   11.33    1.95
   6  -1   5   10.41    2.31
  -6   1   5   10.43    1.63
  -6   1  -5    9.72    2.42
   6  -1  -5   10.53    2.24
   6   1   5   11.05    2.48
  -6  -1   5    9.93    1.37
   6  -3   5    2.95    2.38
  -6   3   5   -1.06    2.03
   6   3  -5    1.06    2.52
  -6   3  -5   -0.53    2.83
  -6  -3   5    0.87    1.52
   6   5  -5   13.99    4.84
  -6   5   5    9.15    4.18
   6  -5   5    6.77    4.04
   6   5   5   13.01    4.36
  -6   5  -5    8.42    5.22
  -6  -5   5    5.22    3.00
  -6   7   5    8.85    6.65
   6  -7   5    4.71    5.85
   6   7  -5    0.03    7.87
  -6   7  -5   -2.59    7.39
   6   7   5   -0.10    6.44
  -6   0  -6  173.02    8.53
   6   0  -6  164.22    8.06
   6   0   6  163.39    8.25
  -6   0   6  162.38    7.63
   6  -2   6  125.24    7.33
  -6   2   6  139.34    7.50
   6   2  -6  137.95    7.30
  -6   2   6  135.66    6.86
  -6   2  -6  131.75    7.59
  -6  -2   6  138.83    6.59
   6   4  -6   29.40    4.69
   6  -4   6   30.09    4.32
  -6   4   6   34.05    4.22
  -6  -4   6   19.23    3.13
  -6   4  -6   33.47    5.10
   6  -6   6  115.18    9.46
  -6   6   6  120.03   10.45
   6   6  -6  114.73   11.02
   6   6   6  118.16   10.32
  -6  -6   6  114.50    8.22
  -6   6  -6  126.26   12.78
   6  -1   7   19.97    3.22
  -6   1   7   24.12    2.85
   6   1  -7   18.89    2.99
   6  -1  -7   20.81    3.54
  -6   1  -7   19.13    3.46
  -6  -1   7   12.84    2.06
   6   1   7   20.45    3.27
   6   3  -7   33.47    4.43
  -6   3   7   36.42    3.89
  -6   3   7   46.24    5.00
   6  -3   7   32.77    4.28
  -6  -3   7   31.63    3.32
  -6   3  -7   36.82    4.90
  -6   5   7   46.92    5.94
   6  -5   7   47.47    5.74
   6   5  -7   36.02    6.17
  -6   5  -7   42.60    6.51
   6   5   7   42.27    6.03
  -6  -5   7   44.58    4.82
   6   7  -7   17.00    9.23
  -6   7   7   17.53    7.30
   6  -7   7   10.16    6.25
   6   7   7   12.80    7.39
  -6   7  -7   11.56    8.54
  -6  -7   7   19.05    6.92
   6   0  -8  448.83   20.39
   6   0   8  457.38   20.52
  -6   0   8  464.88   19.89
  -6   0  -8  481.95   20.65
   6  -2   8   18.71    3.49
  -6   2   8   21.72    3.53
   6   2  -8   16.21    3.56
  -6  -2   8   17.17    2.55
  -6   2  -8   20.04    4.18
   6   2   8   15.29    3.88
  -6   4   8   73.51    7.47
  -6   4   8   69.58    6.35
   6  -4   8   64.72    6.67
   6   4  -8   71.46    7.03
  -6  -4   8   81.92    5.95
  -6   4  -8   75.36    7.39
   6  -6   8   46.14    7.06
   6   6  -8   55.60    8.48
   6   6   8   47.06    7.19
  -6  -6   8   54.01    6.07
  -6   6  -8   14.00    8.63
   6   1  -9   42.39    4.67
   6  -1   9   35.24    4.34
  -6   1   9   43.42    4.33
   6  -1  -9   34.46    4.90
  -6   1  -9   34.85    4.92
   6   1   9   34.05    4.31
  -6  -1   9   35.93    3.82
  -6   3   9    5.18    4.06
   6  -3   9    5.45    3.55
  -6   3   9    5.26    3.44
   6   3  -9    1.43    4.65
  -6  -3   9    6.66    2.81
   6   3   9    2.73    4.56
  -6   3  -9   10.44    4.90
   6   5  -9   10.84    6.40
  -6   5   9    3.37    5.91
  -6   5   9    4.14    4.87
   6  -5   9   -0.16    4.43
  -6   5  -9   -0.23    6.41
  -6  -5   9   -1.10    3.79
   6   7  -9    7.40   11.71
   6  -7   9    9.66    6.89
  -6   7   9    0.73    7.00
  -6   7  -9    0.24    8.32
   6   0 -10  247.15   12.97
  -6   0 -10  243.23   13.01
  -6   0  10  248.39   11.89
   6   0  10  249.14   12.57
   6  -2  10    9.36    3.85
  -6   2  10   17.43    4.20
   6   2 -10   18.40    5.10
  -6  -2  10   14.43    2.95
  -6   2 -10   13.32    4.91
   6   2  10   11.18    3.96
  -6   4  10  119.82    8.97
  -6   4  10  125.74    9.92
   6   4 -10  129.18   10.33
   6  -4  10  121.76    8.93
  -6   4 -10  113.82   10.60
   6   4  10  102.76   10.37
  -6  -4  10  125.75    8.24
   6  -6  10   29.91    6.92
  -6   6  10   18.54    7.31
   6   6 -10   26.40    9.27
  -6   6  10   41.82    8.92
   6   6  10   19.76    8.04
  -6  -6  10   28.29    6.44
  -6   6 -10   33.95    9.20
  -6   1  11   -0.80    3.25
   6  -1  11    2.97    3.65
   6   1 -11   -8.43    4.66
   6   1  11    4.16    3.68
  -6   1 -11    0.84    4.94
  -6  -1  11   -0.77    2.60
  -6   3  11   -0.77    4.57
   6  -3  11    5.42    4.29
   6   3 -11    3.72    5.96
   6   3  11   -2.69    4.91
  -6  -3  11    1.12    3.38
  -6   3 -11    7.94    5.82
  -6   5  11   32.36    6.56
  -6   5  11   37.95    7.87
   6   5 -11   28.03    8.07
   6  -5  11   25.27    6.16
  -6  -5  11   23.23    5.64
  -6   5 -11   -9.18    7.34
   6   5  11   28.12    8.24
   6   0  12   48.95    6.12
   6   0 -12   67.37    7.49
  -6   0 -12   64.58    7.79
  -6   0  12   64.57    6.35
   6  -2  12   85.53    7.95
   6   2 -12  101.35    9.16
  -6   2  12   91.67    8.06
   6   2  12  111.45    9.14
  -6   2 -12   88.34    8.89
  -6  -2  12   85.87    7.05
  -6   4  12   52.69    6.76
  -6   4  12   40.36    7.66
   6   4 -12   46.51    8.46
   6  -4  12   34.15    6.46
   6   4  12   30.18    7.88
  -6  -4  12   29.16    5.59
  -6   6  12   37.62    7.37
  -6   6  12   12.97    9.27
   6  -6  12   22.97    7.67
  -6   6 -12   10.61    8.90
   6   6  12   24.87    9.05
  -6  -6  12   16.35   12.72
   6  -1  13    4.01    4.66
  -6   1  13   18.26    4.99
   6   1 -13    0.41    6.05
   6   1  13    9.70    5.00
  -6  -1  13    7.29    4.42
   6  -1 -13    2.66    6.67
  -6   1 -13   -2.47    6.18
  -6   3  13   23.30    6.84
   6   3 -13   18.63    7.39
   6  -3  13   15.32    5.86
  -6  -3  13   25.22    4.90
   6   3  13   16.10    6.89
  -6   3 -13    9.84    7.38
  -6   5  13   20.80    7.51
  -6   5  13   38.84    9.45
   6  -5  13   33.38    7.48
   6   5 -13   36.85   10.28
   6   5  13   31.67    9.11
  -6  -5  13   24.22    6.62
  -6   5 -13    5.49    9.52
   6   0 -14   13.73    7.53
   6   0  14   15.30    5.43
  -6   0 -14   16.47    7.02
  -6   0  14   22.29    5.23
  -6   2  14   94.66    9.20
   6  -2  14   87.85    9.13
   6   2 -14   89.76    9.84
  -6   2 -14   94.72    9.98
  -6  -2  14   90.21    8.42
   6   2  14   98.53   10.41
   6   4 -14   10.73    9.30
  -6   4  14   14.50    8.31
   6  -4  14    2.92    6.78
   6   4  14    6.07    8.15
  -6  -4  14   28.45    6.73
  -6   4 -14    8.80    9.73
   6   1 -15   13.81    7.92
  -6   1  15   17.43    6.17
  -6  -1  15    5.13    5.18
   6  -1 -15    3.56    8.22
   6   1  15   11.59    9.10
   6   3 -15   -7.42    8.99
  -6   3  15   -3.53    7.77
   6  -3  15    4.58    6.28
   6   3  15   -1.26    7.49
  -6  -3  15    1.29    5.67
  -6   3 -15    4.43    8.74
   6   0 -16    1.56    8.37
  -6   0  16    0.53    6.06
   6   0  16    4.55    5.99
   6  -2  16   45.87    7.78
   6   2 -16   48.69   10.68
  -6   2  16   54.05   10.04
   6   2  16   58.09    8.68
  -6  -2  16   60.89    8.44
  -6   2 -16   32.15    9.34
  -6   4  16   26.79    8.73
   6  -4  16   40.61    8.75
  -6   4  16   40.85   10.47
  -6  -4  16   46.39    9.23
  -6   4 -16   26.60   17.50
   6   4  16   46.93   10.69
  -6   1  17   11.22   11.32
   6   1 -17    9.75    9.68
   6  -1  17    8.53    7.00
  -6  -1  17    3.72    7.23
  -6   1 -17   14.30    9.44
   6   1  17    6.77    7.13
   6  -3  17   12.53    8.02
  -6   3  17   15.91   10.12
  -6   3 -17    4.76    9.57
  -6  -3  17   17.33    8.52
   6   3  17    7.85    8.93
  -6   0  18   29.86    8.99
   6   0  18   38.24    8.41
  -7   1   0    0.07    0.59
   7  -1   0    0.29    1.09
   7   3   0    0.50    1.81
   7  -3   0   -0.35    1.86
  -7   3   0   -2.96    1.97
   7  -5   0    3.77    3.20
   7   5   0    5.43    4.59
  -7   5   0    2.47    4.02
   7  -7   0   -2.30    5.35
   7   7   0   -5.63    6.54
   7   2  -1  257.98   11.15
  -7   2   1  267.58   11.41
   7  -2   1  258.07   11.57
   7  -2  -1  258.44   11.51
  -7   2  -1  261.77   11.47
   7  -4   1  317.52   14.11
  -7   4   1  292.16   13.98
   7   4  -1  296.31   13.82
   7  -4  -1  298.70   14.00
  -7   4  -1  287.26   14.07
   7   4   1  297.02   13.94
   7   6  -1   -2.51    5.47
  -7   6   1   -0.33    5.15
   7  -6   1    4.37    4.28
   7   6   1    3.96    5.23
  -7   6  -1    0.57    5.23
   7  -6  -1   10.85    4.49
  -7   8   1   47.25    9.10
   7  -8   1   37.87    8.24
  -7   8  -1   29.24    9.12
   7  -1   2   29.98    2.37
  -7   1   2   24.49    1.59
   7   1  -2   23.13    1.38
   7  -1  -2   26.44    2.06
  -7   1  -2   29.68    2.36
   7  -3   2    1.02    1.97
   7   3  -2    1.35    1.86
  -7   3   2    0.77    2.25
  -7   3  -2    4.52    2.63
   7  -3  -2   -0.33    1.91
  -7   5   2   19.38    4.48
   7  -5   2    7.89    3.56
   7   5   2    3.26    6.25
  -7   5  -2    0.00    4.64
   7  -5  -2    4.90    3.36
   7  -7   2    3.25    5.05
   7   7  -2  -10.65    6.77
   7  -7  -2    7.97    5.65
  -7   7  -2    3.37    7.84
   7   7   2    2.28    6.48
   7   0  -3    3.27    0.92
   7   0   3    2.60    1.37
  -7   2   3  435.37   18.44
   7   2  -3  431.05   18.29
   7  -2   3  443.12   18.77
  -7   2  -3  441.10   18.67
   7  -2  -3  429.34   18.52
   7   4  -3   63.19    5.70
  -7   4   3   56.60    5.46
   7  -4   3   65.47    5.39
  -7   4  -3   58.27    5.96
   7   4   3   62.84    5.35
   7  -4  -3   72.66    5.25
  -7   6   3   77.12    7.61
   7   6  -3   79.74    7.95
   7  -6   3   83.88    7.71
  -7   6  -3   70.94    8.11
   7   6   3   89.44    7.95
  -7   1   4   18.67    1.68
   7  -1   4   15.33    2.29
  -7   1   4   15.82    1.75
   7   1  -4   16.13    1.73
  -7   1  -4   19.00    2.47
   7   3  -4    3.74    2.18
  -7   3   4    5.45    2.26
   7  -3   4    3.09    2.28
  -7   3  -4    2.83    2.83
  -7  -3   4    3.27    1.47
  -7   5   4   22.62    5.42
   7  -5   4   19.06    4.32
   7   5  -4   19.46    4.93
  -7   5  -4   21.44    5.30
  -7  -5   4   23.34    3.51
   7   5   4   20.17    4.87
  -7   7   4    2.79    6.55
   7   7  -4   -7.68    6.97
   7  -7   4    6.52    5.31
   7   7   4   12.19    6.82
  -7   7  -4    3.73    7.32
   7   0   5    7.58    2.08
  -7   0   5    6.80    1.18
   7   0  -5    8.18    2.04
  -7   2   5  316.18   13.71
   7   2  -5  313.39   13.85
  -7   2   5  307.13   14.10
   7  -2   5  317.97   14.23
  -7   2  -5  313.17   14.31
  -7  -2   5  315.88   13.28
   7   4  -5    4.31    3.74
   7  -4   5    5.77    2.94
  -7   4   5    7.21    3.25
  -7  -4   5    5.79    2.25
  -7   4  -5    6.39    4.04
  -7   6   5  187.44   12.51
   7   6  -5  211.27   13.65
   7  -6   5  204.99   12.19
  -7   6  -5  188.48   13.36
   7   6   5  200.31   12.72
  -7  -6   5  211.44   11.41
  -7   1   6   11.21    2.14
   7  -1   6    8.48    2.45
  -7   1   6   19.31    2.04
   7   1  -6   12.74    2.36
   7   1   6   11.37    2.64
  -7  -1   6   14.27    1.62
   7  -1  -6   10.26    2.66
  -7   1  -6   10.16    2.83
  -7   3   6   12.44    2.96
  -7   3   6   17.74    3.55
   7   3  -6   12.40    3.19
   7  -3   6    9.41    3.13
  -7  -3   6   11.51    2.12
  -7   3  -6   17.22    3.94
   7   5  -6   16.87    5.33
   7  -5   6   12.64    4.35
  -7   5   6   12.42    4.62
  -7   5  -6   27.24    5.87
   7   5   6   13.00    5.03
  -7  -5   6   12.79    3.49
   7   7  -6   -4.33    8.81
   7  -7   6   -2.78    5.70
  -7   7   6    0.94    6.38
  -7   7  -6   -8.68    7.60
   7   7   6   15.74    7.43
  -7   0  -7  605.29   25.55
   7   0  -7  580.75   25.34
   7   0   7  595.31   25.58
  -7   0   7  593.09   24.80
   7  -2   7   23.48    3.46
  -7   2   7   17.32    2.59
  -7   2   7   16.23    3.24
   7   2  -7   16.18    3.36
  -7   2  -7   21.68    3.93
   7   2   7   15.39    3.66
  -7  -2   7   15.03    2.14
  -7   4   7   75.57    6.25
   7   4  -7   69.80    7.18
   7  -4   7   74.87    6.44
  -7   4  -7   65.55    8.01
  -7  -4   7   57.39    5.13
   7   6  -7   71.48    8.67
  -7   6   7   74.96    7.72
   7  -6   7   57.71    8.86
   7   6   7   61.06    7.78
  -7  -6   7   54.83    6.31
   7  -1   8  107.62    6.75
   7   1  -8  102.00    6.65
  -7   1   8  103.82    6.01
  -7   1  -8  101.54    6.94
  -7  -1   8   98.16    5.42
   7  -1  -8   87.10    6.87
   7   1   8   94.55    6.46
  -7   3   8   65.55    5.83
   7   3  -8   72.09    6.41
  -7   3   8   67.64    6.28
   7  -3   8   57.08    6.00
  -7   3  -8   73.55    7.18
  -7  -3   8   67.74    4.76
   7  -5   8   25.87    5.08
  -7   5   8   31.41    5.74
   7   5  -8   28.08    6.74
  -7  -5   8   25.51    4.27
  -7   5  -8   34.78    6.88
  -7   7   8    9.84    6.96
   7  -7   8    4.25    6.52
   7   7  -8    4.80    9.38
  -7  -7   8    7.82    6.82
  -7   7  -8   16.12    8.57
   7   7   8   14.80    8.51
   7   0  -9  487.84   21.91
  -7   0  -9  500.95   22.15
   7   0   9  469.25   21.77
  -7   0   9  495.65   21.09
  -7   2   9   15.66    3.52
  -7   2   9   14.55    3.23
   7   2  -9   15.35    4.18
   7  -2   9    7.14    3.50
  -7   2  -9    8.30    4.35
   7   2   9   17.03    4.21
  -7  -2   9   12.29    2.67
   7  -4   9   57.30    6.48
  -7   4   9   74.42    7.51
   7   4  -9   67.69    7.36
  -7   4  -9   63.02    7.42
  -7  -4   9   54.48    5.61
   7  -6   9   28.85    6.41
   7   6  -9   31.94    8.36
   7   6   9   23.53    7.74
  -7   6  -9   21.82    7.77
  -7  -6   9   32.47    5.95
   7  -1  10   12.79    3.88
  -7   1  10   20.78    3.55
   7   1 -10   21.61    4.70
  -7  -1  10   19.73    3.04
   7  -1 -10   18.75    5.05
  -7   1 -10   27.19    5.09
   7   1  10   19.31    4.03
  -7   3  10   -4.41    3.69
   7  -3  10    9.51    4.36
  -7   3  10   -0.28    4.14
   7   3 -10   -2.57    5.37
  -7   3 -10   -5.87    5.42
   7   3  10    1.18    4.77
  -7  -3  10    1.26    2.75
  -7   5  10   12.47    6.95
  -7   5  10    6.91    5.48
   7   5 -10   14.10    7.10
  -7  -5  10    9.23    4.49
   7   0  11  133.18    8.71
   7   0 -11  124.19    9.72
  -7   0  11  132.17    7.82
  -7   0 -11  132.25    9.80
   7   2 -11   50.41    6.58
   7  -2  11   49.01    5.75
  -7   2  11   54.52    5.81
   7   2  11   50.39    6.47
  -7  -2  11   46.74    5.01
  -7   2 -11   57.83    7.17
   7   4 -11   55.00    8.11
  -7   4  11   63.41    8.01
  -7   4  11   50.34    6.46
   7  -4  11   44.85    6.98
  -7  -4  11   55.66    5.75
   7   4  11   50.46    8.12
  -7   4 -11   52.91    8.25
   7   6 -11   27.44    9.82
  -7   6  11   12.65    8.82
  -7   6  11   22.98    6.86
   7  -6  11   29.16    7.33
  -7   6 -11   19.04    8.62
  -7  -6  11   21.31    6.80
   7   6  11   24.61    8.02
  -7   1  12    2.52    3.79
   7  -1  12   -1.68    4.06
   7   1 -12    1.96    5.76
   7  -1 -12    2.78    6.39
  -7   1 -12    7.81    5.80
   7   1  12    5.03    4.60
  -7  -1  12   12.45    3.60
  -7   3  12   45.39    7.12
   7  -3  12   29.50    6.06
   7   3 -12   38.77    7.51
  -7   3  12   51.17    6.21
  -7   3 -12   41.15    7.47
  -7  -3  12   46.30    5.13
   7   3  12   44.23    7.51
   7   5 -12   38.76    9.22
  -7   5  12   47.52    9.74
   7  -5  12   36.45    7.36
   7   5  12   45.71    8.89
  -7  -5  12   48.37    6.63
  -7   5 -12   46.62    9.51
  -7   0 -13   38.55    7.43
  -7   0  13   45.05    5.55
   7   0 -13   38.27    7.38
   7   0  13   43.75    6.16
   7   2 -13   48.47    8.08
  -7   2  13   69.27    7.41
   7  -2  13   60.64    6.75
   7   2  13   43.44    7.14
  -7  -2  13   48.56    5.57
  -7   2 -13   48.25    7.83
  -7   4  13   54.87    7.45
   7   4 -13   38.34    9.42
   7  -4  13   51.88    7.42
  -7   4  13   53.14    8.63
   7   4  13   29.20    8.39
  -7  -4  13   41.67    6.30
   7   1 -14    5.41    6.96
  -7   1  14   11.20    5.38
   7  -1  14    3.97    4.72
  -7  -1  14   -1.52    4.59
  -7   1 -14    9.71    7.14
   7   1  14   -5.85    5.67
   7  -1 -14   -0.38    7.45
   7  -3  14    1.29    5.94
  -7   3  14   -2.02    6.88
   7   3 -14    0.77    7.86
   7   3  14   12.71    6.64
  -7  -3  14   -8.17    4.84
   7   5 -14   -9.87   12.66
  -7   5  14   -4.50    9.21
  -7   5  14    0.08    7.06
   7  -5  14   -4.66    6.68
  -7  -5  14    4.07    6.96
  -7   5 -14   15.06   10.02
   7   5  14   -0.44    9.25
   7   0 -15   12.97    7.53
   7   0  15    3.15    7.21
  -7   0  15   -7.83    4.77
   7   2 -15   64.47   10.18
   7  -2  15   85.63    8.90
  -7   2  15   87.81    9.68
   7   2  15   65.18    9.30
  -7  -2  15   89.39    9.12
  -7   4  15    3.07    7.21
  -7   4  15   40.92   10.00
   7  -4  15   37.62    8.07
   7   4 -15   18.95   10.78
  -7   4 -15   30.51    9.60
  -7  -4  15   38.35    7.95
   7   4  15   41.41    9.96
   7   1 -16   10.22    8.70
   7  -1  16   12.03    6.59
  -7   1  16    0.97    7.05
  -7  -1  16    6.19    6.21
   7   1  16    4.05    6.71
  -7   1 -16   12.81    8.38
   7   3 -16   20.51   10.65
   7  -3  16    1.46    7.11
  -7   3  16   30.58    9.40
   7   3  16   22.03    8.66
  -7   3 -16   24.28    9.68
  -7  -3  16   17.69    7.56
   7   0  17   22.32    7.10
  -7   0  17   30.86    8.07
   7   0 -17    5.95    9.72
   7  -2  17   34.09    8.17
  -7   2  17   17.43    9.82
   7   2 -17    8.24   10.06
   7   2  17   37.11    9.38
  -7   2 -17   14.89   10.04
  -7  -2  17   22.58    8.08
   7  -1  18    7.19    7.22
  -7   1  18    0.44    9.03
  -7  -1  18  -13.19    8.29
  -7   1 -18    0.66   10.31
   7   1  18   -2.23    7.97
   8  -2   0  161.22    7.83
  -8   2   0  171.69    7.74
   8  -4   0  269.32   12.48
   8   4   0  254.09   12.33
  -8   4   0  247.81   12.43
   8   6   0    3.00    5.22
   8  -6   0   -0.45    4.41
  -8   6   0    5.38    5.40
   8  -1   1   34.11    2.44
   8  -1  -1   26.28    2.39
   8   3  -1   55.05    3.94
   8  -3   1   49.84    4.17
  -8   3   1   49.80    4.30
  -8   3  -1   55.25    4.30
   8  -3  -1   50.94    4.06
  -8   5   1   -4.26    4.13
   8  -5   1   -2.93    3.10
   8   5  -1    2.99    4.79
  -8   5  -1    5.79    4.43
   8  -5  -1    4.11    3.45
   8  -7   1  -10.37    5.45
   8   7  -1   -3.83    7.10
   8  -7  -1    0.09    5.17
   8   7   1   -0.48    6.98
   8   0   2  123.85    6.43
   8   2  -2  124.96    6.03
   8  -2   2  131.54    6.59
  -8   2   2  139.93    6.34
   8  -2  -2  124.89    6.42
  -8   2  -2  135.67    6.61
  -8   4   2  221.85   11.13
   8   4  -2  229.55   10.98
   8  -4   2  223.62   11.26
   8   4   2  225.63   11.17
  -8   4  -2  214.03   11.32
   8  -4  -2  222.50   11.09
   8   6  -2    9.76    5.72
  -8   6   2   18.12    5.73
   8  -6   2    9.14    4.71
   8   6   2    4.92    5.21
   8  -6  -2   12.84    4.71
  -8   6  -2   11.56    6.09
  -8   1   3   52.76    2.79
   8  -1   3   66.22    4.02
   8   1  -3   66.59    3.09
  -8   1  -3   68.03    3.84
   8  -1  -3   69.97    3.53
   8  -3   3   29.83    3.51
   8   3  -3   35.92    3.61
  -8   3   3   38.34    3.63
  -8   3  -3   36.24    3.94
   8  -3  -3   37.18    3.65
   8   5  -3   -2.40    5.02
  -8   5   3    1.63    4.33
   8  -5   3    4.15    3.28
   8  -5  -3    7.08    3.67
   8   5   3    6.48    4.19
   8   7  -3   -3.29    7.20
   8  -7   3   -2.53    5.38
  -8   7  -3    7.68    7.10
   8   7   3   10.91    7.03
   8   0  -4   18.61    1.88
   8   0   4   18.24    2.29
  -8   2   4  274.15   11.77
  -8   2   4  261.36   11.98
   8  -2   4  266.24   12.22
   8   2  -4  265.58   11.72
  -8   2  -4  267.56   12.26
   8  -4   4   52.89    5.22
  -8   4   4   54.73    5.68
   8   4  -4   50.98    5.02
  -8   4  -4   59.69    5.67
   8  -4  -4   53.08    5.07
   8   6  -4  176.22   12.28
  -8   6   4  184.01   11.63
   8  -6   4  160.74   11.24
  -8   6  -4  172.44   12.26
   8   6   4  175.76   11.72
  -8   1   5  115.01    5.21
   8  -1   5  109.24    6.07
   8   1  -5  108.37    5.55
  -8   1   5  109.26    5.24
   8   1   5  108.18    6.20
  -8   1  -5  110.22    6.16
   8  -1  -5  100.69    5.94
   8   3  -5    3.54    2.53
  -8   3   5   10.09    2.64
   8  -3   5    5.97    2.53
  -8   3   5    9.73    3.05
  -8   3  -5   10.18    3.55
  -8  -3   5    8.45    1.60
   8   5  -5   25.15    5.58
   8  -5   5   14.46    4.61
   8   5   5   16.65    5.04
  -8   5  -5   17.37    5.68
  -8  -5   5   20.56    3.47
  -8   7   5   10.15    7.23
   8   7  -5   -2.03    8.11
   8  -7   5   -6.77    5.68
  -8   7  -5   -0.47    7.26
   8   7   5   -4.51    6.63
   8   0   6  215.22    9.76
  -8   0   6  189.48    8.60
  -8   0   6  189.97    8.62
   8   0  -6  212.86    9.53
  -8   2   6  163.10    7.76
   8  -2   6  162.66    8.42
   8   2  -6  160.33    8.10
  -8   2   6  156.83    8.04
  -8   2  -6  147.46    8.55
  -8  -2   6  158.05    7.10
   8   4  -6   10.45    4.41
  -8   4   6    5.51    3.69
   8  -4   6    3.28    3.45
  -8   4  -6   10.88    5.00
  -8  -4   6   10.51    2.56
  -8   6   6  140.83   10.90
   8   6  -6  146.46   11.84
   8   6   6  135.90   11.15
  -8  -6   6  158.18    9.56
  -8   6  -6  145.12   12.06
  -8   1   7   10.87    2.00
   8   1  -7   16.02    2.88
  -8   1   7    7.84    2.10
   8  -1   7   15.42    2.99
   8  -1  -7   11.38    3.36
   8   1   7   12.06    3.13
  -8  -1   7    7.22    1.49
  -8   1  -7   12.77    3.24
   8  -3   7   42.54    4.76
   8   3  -7   36.70    4.52
  -8   3   7   44.70    4.71
  -8   3   7   38.65    4.15
  -8  -3   7   40.51    3.48
  -8   3  -7   45.10    5.59
   8  -5   7    3.32    3.98
   8   5  -7    8.59    5.61
  -8   5   7   13.21    4.88
  -8   5  -7   24.65    6.22
  -8  -5   7    9.77    3.50
  -8   7   7    2.59    6.66
   8  -7   7   16.76    6.14
   8   7  -7    6.67    9.25
  -8   7  -7    4.21    8.15
   8   7   7    4.99    7.47
   8   0   8  491.56   21.59
   8   0  -8  495.93   21.43
  -8   0   8  476.04   20.62
  -8   2   8   23.35    3.60
  -8   2   8   24.98    3.39
   8   2  -8   26.39    4.08
   8  -2   8   24.86    3.96
  -8  -2   8   21.42    2.50
   8   2   8   22.07    4.15
  -8   2  -8   19.40    4.49
   8   4  -8   78.28    7.49
  -8   4   8   83.89    7.45
  -8   4   8   75.80    6.76
   8  -4   8   72.66    7.27
  -8  -4   8   73.79    5.53
  -8   4  -8   76.01    7.74
   8   6  -8   39.66    8.38
   8  -6   8   41.98    6.90
  -8   6   8   23.64    6.89
   8   6   8   30.78    7.45
  -8  -6   8   36.25    5.93
   8   1  -9   26.62    4.48
   8  -1   9   26.59    3.98
  -8   1   9   28.96    3.56
   8   1   9   27.97    4.05
  -8  -1   9   26.89    2.78
  -8   1  -9   24.82    4.74
   8  -1  -9   20.49    4.61
  -8   3   9   25.23    4.92
   8   3  -9   21.64    5.18
   8  -3   9   20.73    4.40
  -8   3   9   24.21    3.83
   8   3   9   18.02    5.45
  -8   3  -9   11.10    5.47
  -8  -3   9   26.55    3.33
  -8   5   9    7.11    5.35
   8   5  -9   -1.84    6.66
  -8   5   9    4.53    5.82
   8  -5   9   -0.95    5.03
  -8   5  -9   12.96    7.07
  -8  -5   9   -1.11    3.65
  -8   0 -10  306.24   15.18
  -8   0  10  298.37   13.79
   8   0  10  298.52   14.93
   8   0 -10  305.80   15.11
  -8   2  10   52.64    5.61
  -8   2  10   56.56    5.58
   8  -2  10   60.65    6.24
   8   2 -10   54.10    6.23
  -8  -2  10   58.68    4.69
   8   2  10   61.09    6.68
  -8   2 -10   48.55    6.65
   8  -4  10   25.41    5.50
  -8   4  10   41.62    6.64
  -8   4  10   14.22    5.10
   8   4 -10   18.12    6.58
  -8   4 -10   22.26    6.40
  -8  -4  10   24.18    4.09
   8   4  10   28.26    6.93
  -8   6  10   16.96    8.09
  -8   6  10    4.36    6.65
   8   6 -10   13.26    8.89
   8  -6  10   23.27    7.26
  -8  -6  10   10.34    5.76
   8   6  10    8.17    7.95
  -8   6 -10   11.53    8.49
  -8   1  11   -1.32    2.91
   8  -1  11   -3.09    3.52
   8   1 -11    2.10    6.52
   8   1  11   -2.54    3.76
  -8  -1  11    0.91    2.73
  -8   1 -11    3.92    5.43
   8  -1 -11    2.37    5.18
   8  -3  11   65.92    7.14
   8   3 -11   69.02    7.99
  -8   3  11   74.37    6.80
  -8   3  11   61.49    6.89
  -8  -3  11   70.77    6.10
  -8   3 -11   65.93    8.20
   8   3  11   66.37    7.86
   8   5 -11   30.46    9.02
  -8   5  11   38.77    8.27
   8  -5  11   38.05    7.43
  -8   5  11   44.17    7.06
  -8  -5  11   41.18    6.02
   8   5  11   49.75    9.39
   8   0 -12   49.38    7.44
  -8   0  12   44.91    4.98
   8   0  12   47.75    6.07
  -8   2  12   51.65    6.36
   8   2 -12   45.05    7.30
   8  -2  12   39.93    6.15
   8   2  12   40.84    6.58
  -8  -2  12   40.33    4.63
  -8   2 -12   35.71    7.12
   8   4 -12   73.75    9.53
   8  -4  12   79.56   10.39
  -8   4  12   66.40    8.70
  -8   4  12   88.52    7.82
  -8  -4  12   59.82    6.58
   8   4  12   58.07    9.74
  -8   1  13    5.31    4.22
   8   1 -13    2.76    6.61
   8  -1  13    4.06    4.48
   8  -1 -13   -4.65    6.54
   8   1  13   -4.92    4.92
  -8   1 -13    0.78    6.31
  -8  -1  13    4.08    3.97
   8   3 -13   10.50    7.97
  -8   3  13   16.60    5.97
  -8   3  13    8.61    6.17
   8  -3  13   19.27    6.45
  -8   3 -13    8.60    7.35
   8   3  13    7.43    6.71
  -8  -3  13   12.82    4.63
  -8   5  13   27.28    9.63
   8   5 -13   21.41   10.18
   8  -5  13   13.98    6.86
  -8   5  13    4.23    7.44
  -8   5 -13   14.95    9.34
  -8  -5  13   26.73    6.75
   8   5  13   21.51    9.07
  -8   0  14    3.62    4.62
   8   0 -14   10.92    7.13
   8   0  14    0.41    5.41
   8   2 -14   83.37   10.06
   8  -2  14   91.50   10.88
  -8   2  14  107.84   10.23
  -8   2 -14   93.98   10.06
  -8  -2  14   97.41    8.41
   8   2  14   82.61    9.46
   8  -4  14   36.09    7.58
   8   4 -14   29.91   10.36
  -8   4  14   26.25    7.66
   8   4  14   21.80    9.33
  -8  -4  14   33.95    6.83
  -8   4 -14   38.02    9.92
   8   1 -15    7.56    7.84
   8  -1  15    2.60    5.98
  -8   1  15    1.24    5.44
  -8  -1  15   -6.64    5.04
   8   1  15    5.24    6.48
   8  -1 -15    0.47    8.44
  -8   3  15   17.09    8.84
   8  -3  15   15.91    6.95
   8   3 -15   15.28    9.88
  -8   3  15   13.69    6.80
  -8  -3  15    8.87    6.19
  -8   3 -15   14.03    9.16
   8   3  15   -3.12    7.49
   8   0  16    6.28    6.55
   8   0 -16    6.34    9.22
  -8   0  16   14.12    6.35
   8  -2  16   73.81    8.90
  -8   2  16   66.82    9.74
   8   2 -16   49.99   11.03
   8   2  16   60.50    9.71
  -8   2 -16   63.28   10.41
  -8  -2  16   59.81    8.09
   8   1 -17    7.78   10.29
   8  -1  17  -11.00    6.37
  -8   1  17    2.94    7.58
  -8   1 -17   -1.58    9.70
  -8  -1  17   -0.61    7.32
   8   1  17    1.58    6.81
   9  -1   0    0.22    1.19
  -9   3   0    1.89    2.23
   9   3   0   -0.70    1.78
   9  -3   0   -3.06    1.95
   9  -5   0   -5.29    3.27
  -9   5   0   -9.05    4.09
   9  -7   0   -1.33    5.72
   9   7   0   -6.46    7.17
   9   2  -1   88.53    4.49
   9  -2   1   92.58    5.15
  -9   2  -1   90.25    4.93
   9  -2  -1   97.36    5.06
   9  -4   1  242.19   12.00
   9   4  -1  248.63   11.88
  -9   4   1  226.80   11.85
   9   4   1  245.91   11.94
  -9   4  -1  250.53   12.05
   9  -4  -1  242.76   11.92
   9   6  -1   -1.32    5.60
   9  -6   1    6.35    4.74
  -9   6   1   -4.03    5.39
  -9   6  -1   -7.24    5.14
   9   6   1    0.60    5.49
   9  -6  -1   -6.47    4.58
   9  -1   2   81.68    4.39
   9  -1  -2   77.55    4.01
  -9   3   2  123.49    6.58
   9   3  -2  116.24    6.23
   9  -3   2  118.56    6.74
  -9   3  -2  125.12    6.91
   9  -3  -2  108.91    6.39
  -9   5   2   15.00    4.87
   9  -5   2    3.33    3.35
   9   5   2    7.49    4.37
   9  -5  -2    4.52    3.82
  -9   5  -2    8.41    4.89
   9   7  -2    8.47    7.60
   9  -7   2    3.20    5.87
   9  -7  -2   -7.14    5.77
   9   7   2   14.60    7.43
   9   0   3   26.65    2.59
   9   0  -3   23.14    1.66
   9  -2   3  103.57    5.90
   9   2  -3  104.25    5.18
  -9   2   3   98.25    5.39
  -9   2   3  112.86    5.37
  -9   2  -3  107.75    5.92
   9  -2  -3  106.61    5.49
   9   4  -3  143.46    8.08
   9  -4   3  147.79    8.33
  -9   4   3  147.41    8.20
  -9   4  -3  129.77    8.86
   9  -4  -3  141.07    8.13
  -9   6   3   80.41    7.61
   9   6  -3   77.29    8.14
   9  -6   3   70.51    7.33
   9   6   3   79.37    7.89
   9  -6  -3   75.68    7.59
  -9   6  -3   74.55    8.43
   9   1  -4  130.32    6.26
   9  -1   4  145.17    7.12
  -9   1  -4  141.36    6.82
   9   3  -4   15.04    2.72
   9  -3   4   23.73    3.27
  -9   3   4   18.88    2.98
  -9   3  -4   18.40    3.46
   9  -3  -4   16.38    2.83
   9   5  -4   -0.05    4.63
   9  -5   4   -2.60    3.63
  -9   5   4    1.73    4.27
   9   5   4   -1.04    4.49
  -9   5  -4    2.62    5.08
   9   7  -4    4.14    8.08
   9  -7   4   11.60    6.13
  -9   7   4  -12.55    7.76
   9   7   4   -1.20    7.23
  -9   7  -4   -2.69    7.35
   9   0   5   53.47    4.15
   9   0  -5   55.19    3.74
   9   2  -5  151.22    7.49
   9  -2   5  157.87    8.18
  -9   2   5  144.41    7.41
  -9   2   5  151.90    7.32
  -9   2  -5  153.46    8.24
   9  -4   5   45.27    4.99
  -9   4   5   45.21    4.78
   9   4  -5   43.12    5.07
  -9   4  -5   47.37    5.66
   9  -6   5  159.62   11.22
  -9   6   5  162.02   11.98
   9   6  -5  166.31   12.02
  -9   6  -5  151.04   12.44
   9   6   5  160.05   11.60
   9  -1   6    9.84    2.53
   9   1  -6    5.94    2.16
  -9   1   6    6.27    1.52
  -9   1   6    5.86    1.47
   9  -1  -6    5.48    2.63
  -9   1  -6    5.39    2.72
   9   1   6    5.85    2.64
   9  -3   6   45.43    4.78
   9   3  -6   49.91    5.14
  -9   3   6   49.07    4.57
  -9   3   6   47.78    5.01
  -9  -3   6   42.36    3.06
  -9   3  -6   49.07    5.23
   9  -5   6   23.57    5.00
  -9   5   6   18.36    6.24
   9   5  -6   22.73    5.87
  -9   5  -6   27.86    5.72
   9  -7   6  -17.64    5.74
  -9   7   6    9.88    6.98
   9   7  -6    0.84    9.06
   9   7   6   -5.06    7.09
  -9   7  -6   -4.65    7.85
   9   0  -7  239.86   10.97
  -9   0   7  223.65    9.75
   9   0   7  218.54   11.10
  -9   0   7  224.08    9.75
  -9   2   7  105.83    6.31
  -9   2   7  109.18    5.93
   9  -2   7  102.19    6.75
   9   2  -7  107.06    6.45
  -9  -2   7  101.80    5.00
   9   2   7  101.52    7.05
  -9   2  -7  113.26    7.25
   9  -4   7   20.36    4.50
  -9   4   7   27.32    5.02
  -9   4   7   18.24    4.24
   9   4  -7   19.24    5.88
  -9  -4   7   19.32    2.83
  -9   4  -7   24.85    5.89
   9  -6   7   85.31    9.14
  -9   6   7   85.13    8.51
   9   6  -7   83.97    9.32
   9   6   7   93.86    9.08
  -9   1   8    1.13    1.89
   9  -1   8    2.03    2.83
   9   1  -8    1.90    3.18
  -9   1   8    0.43    1.90
   9  -1  -8   -0.83    3.62
  -9   1  -8    4.70    3.65
  -9  -1   8   -0.06    1.37
   9   1   8    3.59    2.84
  -9   3   8   25.18    4.36
   9  -3   8   19.20    4.12
   9   3  -8   23.55    4.62
  -9   3   8   23.82    3.56
  -9   3  -8   23.03    5.47
  -9  -3   8   24.96    2.75
   9   5  -8   -2.60    6.05
   9  -5   8    4.11    4.61
  -9   5   8   10.28    5.58
  -9   5   8   -5.16    4.99
  -9   5  -8    4.78    6.61
  -9  -5   8    6.99    3.43
  -9   7   8   -1.06    6.76
   9   7  -8    7.19    9.23
   9  -7   8  -17.08    6.49
  -9   7  -8    1.36    8.39
  -9   0   9  368.75   16.02
   9   0   9  363.56   17.21
   9   0  -9  374.46   17.34
  -9   2   9   55.81    5.08
   9  -2   9   59.79    5.82
   9   2  -9   64.51    6.39
  -9   2   9   54.90    5.45
  -9   2  -9   58.18    6.35
   9   2   9   41.05    5.71
  -9  -2   9   54.93    4.03
   9   4  -9   41.14    7.02
  -9   4   9   33.59    5.29
  -9   4   9   33.57    6.19
   9  -4   9   40.52    5.72
  -9   4  -9   38.20    6.51
  -9  -4   9   31.56    3.83
   9  -6   9   24.03    6.73
   9   6  -9    5.62    8.13
   9   6   9    7.25    7.63
  -9   6  -9    7.29    7.80
  -9  -6   9   12.71    5.37
  -9   1  10   -0.65    2.72
   9  -1  10   -6.75    3.39
   9   1 -10    2.99    4.23
   9   1  10    6.91    3.70
   9  -1 -10    3.82    5.14
  -9  -1  10   -1.79    1.93
  -9   1 -10   -5.38    4.66
  -9   3  10   26.96    4.61
   9   3 -10   39.44    6.21
  -9   3  10   38.39    5.86
   9  -3  10   40.66    5.77
  -9  -3  10   27.28    3.60
   9   3  10   48.04    6.66
  -9   3 -10   28.49    6.90
  -9   5  10   13.54    6.91
   9  -5  10   19.12    5.96
   9   5 -10   20.45    7.91
  -9   5  10   14.46    5.77
  -9  -5  10   13.58    4.41
   9   0  11  122.10    9.04
  -9   0  11  146.48    7.83
   9   2 -11   21.03    5.79
  -9   2  11   28.29    4.82
   9  -2  11   19.77    5.04
  -9   2  11   24.35    4.45
  -9   2 -11   25.64    9.79
  -9  -2  11   26.56    3.56
   9   2  11   24.09    5.58
  -9   4  11   79.00    8.12
   9  -4  11   69.41    7.99
   9   4 -11   66.55    8.89
  -9   4  11   80.89    8.50
  -9   4 -11   77.41    9.48
   9   4  11   87.95    9.77
  -9  -4  11   80.33    6.78
  -9   6  11    8.40    9.63
   9   6 -11   -7.10    9.37
  -9   6  11   11.74    6.60
   9  -6  11    6.34    7.25
  -9  -6  11    3.98    6.38
  -9   6 -11   -9.11    8.86
   9  -1  12    2.59    4.53
   9   1 -12   -9.01    5.60
  -9   1  12    2.08    3.64
   9  -1 -12   -1.76    6.82
  -9   1 -12    0.17    5.84
  -9  -1  12    6.04    3.31
   9   1  12   -3.16    4.75
  -9   3  12   34.10    6.72
   9   3 -12   29.30    7.27
   9  -3  12   27.13    6.15
  -9  -3  12   24.36    4.30
   9   3  12   26.33    6.98
  -9   3 -12   29.24    7.81
  -9   5  12   23.41    7.01
   9  -5  12   25.82    7.23
   9   5 -12   25.15    9.60
   9   5  12   37.51    8.84
  -9   5 -12   13.53    8.60
  -9  -5  12   23.77    5.78
  -9   0  13    3.20    3.91
   9   0 -13    2.13    7.00
   9   0  13   -5.40    4.60
  -9   2  13  105.61    9.37
   9   2 -13  103.13   10.15
   9  -2  13  107.73    9.76
  -9   2  13  102.12    8.88
  -9  -2  13   98.13    7.75
  -9   2 -13  104.17   10.39
   9   2  13  106.24   10.28
   9   4 -13   39.10    9.74
  -9   4  13   28.66    6.70
  -9   4  13   49.43    9.16
   9  -4  13   34.35    7.18
   9   4  13   55.43    9.59
  -9   4 -13   -0.50    8.98
  -9  -4  13   26.59    5.60
   9  -1  14   -4.53    5.22
  -9   1  14    5.14    5.04
   9   1 -14   -7.64    7.18
  -9  -1  14   -5.45    4.39
   9   1  14   -7.69    5.74
   9  -1 -14    8.27    8.46
  -9   1 -14   14.35    7.72
   9  -3  14   -1.00    5.61
  -9   3  14    8.80    7.31
  -9   3  14   -2.69    5.73
   9   3 -14  -12.02    7.97
  -9  -3  14   -3.53    4.90
   9   3  14   15.53    7.69
   9   0  15   -6.06    5.97
  -9   0  15    5.06    5.60
   9   0 -15   -3.12    8.19
   9   2 -15   57.71   10.61
   9  -2  15   74.71    8.99
  -9   2  15  112.68   11.41
   9   2  15   87.59    9.88
   9   4 -15    9.17   10.93
   9  -4  15   -3.43    7.18
  -9   4  15   15.36    9.78
   9   4  15    8.97    9.40
  -9   4 -15   22.75    8.96
  -9  -4  15    0.80    6.91
   9  -1  16   -0.78    6.33
   9   1 -16    5.24    9.68
  -9   1  16   -7.80    6.71
  -9  -1  16   -1.02    6.23
   9   1  16    7.19    6.90
  -9   1 -16   10.19    8.75
  -9   3  16   24.94    7.60
   9  -3  16    5.61    7.37
  -9   3  16   11.79   10.03
   9   3 -16    5.89   10.67
  -9  -3  16   16.44    7.20
  -9   3 -16    0.13    9.20
   9   3  16   -4.26    8.88
   9   0 -17   24.94   11.65
  -9   0  17   34.41    8.51
   9   0  17   29.85    7.78
  -9   2  17   16.94   16.43
   9  -2  17   25.88    7.80
   9   2 -17   23.45   11.43
  -9   2 -17   39.56   10.61
   9   2  17   13.32    9.17
  -9  -2  17   39.55    8.31
 -10   2   0   61.81    3.63
  10  -2   0   60.13    4.07
  10  -4   0  206.84   10.74
  10   4   0  212.36   10.43
 -10   4   0  206.44   10.68
  10   6   0    4.68    5.68
  10  -6   0   -1.13    4.89
 -10   6   0    1.47    5.93
  10  -1   1   24.27    2.19
  10  -1  -1   23.17    2.23
 -10   3   1   35.58    3.52
  10  -3   1   34.03    3.72
  10   3  -1   32.13    3.10
 -10   3  -1   39.28    3.74
  10  -3  -1   33.03    3.54
  10  -5   1    2.94    3.67
 -10   5   1   -0.76    4.67
  10  -5  -1    9.92    3.91
 -10   5  -1   11.48    4.85
  10   5   1    0.93    5.16
  10  -7   1    8.58    6.08
  10   7  -1  -15.62    7.17
  10  -7  -1   -0.34    5.89
  10   7   1    1.80    7.51
 -10   2   2  139.97    6.93
  10   2  -2  152.43    6.88
  10  -2   2  156.82    7.58
 -10   2  -2  161.60    7.49
  10  -2  -2  162.27    7.47
  10  -4   2  127.93    8.03
 -10   4   2  132.83    8.07
  10   4  -2  135.28    7.90
 -10   4  -2  132.22    8.48
  10  -4  -2  130.66    7.79
  10   4   2  132.52    7.78
  10  -6   2   28.81    5.67
  10   6  -2   37.44    6.77
 -10   6   2   30.06    6.45
  10   6   2   28.37    6.49
 -10   6  -2   14.39    6.55
  10  -6  -2   35.86    5.98
  10  -1   3  138.28    6.81
  10   1  -3  132.21    5.83
  10  -1  -3  140.71    6.33
  10  -3   3   71.73    5.12
  10   3  -3   63.02    4.71
 -10   3   3   67.42    4.86
 -10   3  -3   68.44    5.48
  10  -3  -3   74.84    5.08
 -10   5   3    7.64    4.61
  10   5  -3   17.60    5.07
  10  -5   3   16.29    4.35
  10   5   3   15.19    4.82
 -10   5  -3   10.94    5.49
  10  -5  -3    8.68    4.21
  10   7  -3   18.30    8.30
  10  -7   3    2.22    6.22
  10   7   3   18.71    8.04
 -10   7  -3   -9.25    6.67
  10   0   4  162.41    7.71
  10   0  -4  156.30    7.17
  10  -2   4   93.49    5.74
 -10   2   4   83.06    4.75
 -10   2   4   93.09    4.83
  10   2  -4   90.43    4.88
  10  -2  -4   88.23    5.18
 -10   2  -4   98.94    5.82
 -10   4   4   75.35    6.40
  10  -4   4   71.14    6.11
  10   4  -4   69.76    6.36
  10  -4  -4   76.32    5.99
 -10   4  -4   74.15    7.25
 -10   6   4  100.45    8.82
  10   6  -4   92.15    9.32
  10  -6   4   95.39    9.00
 -10   6  -4   96.31   10.19
  10   6   4   87.99    8.54
  10   1  -5    7.17    1.80
  10  -1   5    5.26    2.29
  10   1   5    4.84    2.23
 -10   1  -5    4.45    2.39
 -10   3   5    7.70    2.68
  10   3  -5    4.39    2.62
 -10   3   5    2.53    2.74
  10  -3   5    0.80    2.74
 -10   3  -5    8.55    3.57
  10  -5   5    3.09    4.09
 -10   5   5    6.41    4.60
  10   5  -5   10.28    5.21
 -10   5  -5   12.04    5.86
  10   5   5    5.18    4.72
 -10   7   5   12.99    7.13
  10   7  -5   15.34    9.23
  10  -7   5    6.34    6.22
 -10   7  -5    4.71    7.85
  10   7   5   11.00    7.83
  10   0   6   19.74    3.00
  10   0  -6   13.26    2.64
  10   2  -6  170.31    8.48
 -10   2   6  170.84    8.02
  10  -2   6  164.19    8.82
 -10   2   6  156.55    8.07
 -10   2  -6  175.38    8.96
 -10   4   6   48.86    5.17
  10  -4   6   47.91    5.44
 -10   4   6   45.38    5.46
  10   4  -6   45.07    5.50
 -10   4  -6   45.47    6.24
  10   6  -6  133.15   11.41
  10  -6   6  117.88   10.31
 -10   6   6  131.87   11.38
  10   6   6  111.61   10.83
 -10   6  -6  126.82   11.80
 -10   1   7    1.13    1.36
 -10   1   7    0.26    1.45
  10  -1   7   -1.00    2.64
  10   1  -7   -0.03    2.52
  10  -1  -7    5.22    3.22
 -10   1  -7    1.79    3.02
  10   1   7   -2.83    2.45
 -10   3   7   81.65    5.93
  10   3  -7   80.06    6.88
 -10   3   7   83.34    6.30
  10  -3   7   82.72    6.57
 -10  -3   7   76.87    4.18
 -10   3  -7   84.37    7.80
  10   5  -7   31.09    6.66
 -10   5   7   23.94    5.80
  10  -5   7   19.33    5.68
 -10   5   7   19.27    6.06
 -10   5  -7   24.85    6.40
  10   7  -7   -6.11    9.21
  10  -7   7    3.48    6.95
 -10   7   7    3.25    6.68
 -10   7  -7   -5.87    8.37
  10   7   7  -12.83    8.40
  10   0  -8  275.58   13.08
 -10   0   8  273.12   11.48
 -10   0   8  256.70   11.44
  10   0   8  267.80   13.00
 -10   2   8  107.22    6.49
  10   2  -8  113.37    7.40
 -10   2   8  107.23    6.19
  10  -2   8  110.79    7.43
 -10  -2   8  101.18    5.04
  10   2   8  116.51    8.07
 -10   2  -8  103.29    7.69
 -10   4   8   11.19    5.05
  10  -4   8   12.08    4.71
 -10   4   8    0.91    3.90
  10   4  -8   16.19    5.43
 -10   4  -8   10.37    5.85
 -10  -4   8    8.86    2.45
  10  -6   8   22.79    6.82
 -10   6   8   21.81    8.14
  10   6  -8   24.29    8.27
 -10   6   8   26.34    6.98
  10   6   8   28.95    7.74
 -10   1   9   -2.02    2.05
 -10   1   9    2.27    2.18
  10   1  -9   -0.42    3.65
  10  -1   9    7.10    3.65
  10  -1  -9   -2.12    4.39
 -10   1  -9   -2.09    4.11
 -10  -1   9   -0.37    1.59
  10   1   9   -0.84    3.22
 -10   3   9   36.76    4.94
  10  -3   9   23.08    4.99
  10   3  -9   29.96    6.02
 -10   3   9   25.13    4.13
 -10   3  -9   40.78    6.68
 -10  -3   9   24.43    2.78
  10   3   9   28.55    5.67
 -10   5   9    5.15    5.66
  10   5  -9    8.68    6.70
 -10   5   9    2.20    5.84
 -10  -5   9    8.17    3.70
 -10   5  -9    8.93    7.71
  10   0  10  252.18   13.00
  10   0 -10  247.66   13.58
 -10   2  10    8.22    3.58
  10   2 -10    2.00    4.74
  10  -2  10    1.36    4.06
 -10   2  10    4.07    3.20
 -10  -2  10    2.15    2.03
 -10   2 -10    1.22    5.29
  10   2  10   -0.39    4.11
 -10   4  10  148.88   11.05
  10  -4  10  147.07   10.75
  10   4 -10  135.80   11.46
 -10   4  10  140.62   10.30
 -10   4 -10  141.87   11.75
  10   4  10  150.27   12.59
 -10  -4  10  147.43    8.08
 -10   6  10  -11.89   10.53
  10  -6  10    2.56    6.69
  10   6 -10  -10.72    8.49
 -10  -6  10   -1.07    5.49
 -10   6 -10    5.93    8.35
  10   6  10    4.36    8.34
 -10   1  11   -3.00    2.81
 -10   1  11    1.44    3.01
  10  -1  11    2.15    3.78
  10   1  11   -1.13    4.25
 -10  -1  11    1.09    2.41
  10  -1 -11   -2.48    5.80
 -10   1 -11    2.70    5.68
 -10   3  11    3.76    4.07
  10   3 -11    9.84    6.36
  10  -3  11    9.64    5.29
 -10   3  11    9.70    5.63
 -10  -3  11    6.46    3.05
 -10   3 -11    6.27    6.18
  10   3  11   10.59    5.98
  10   5 -11    4.70    8.57
  10  -5  11  -12.70    5.85
 -10   5  11    2.91    7.65
 -10   5  11    5.04    6.22
 -10   5 -11   11.13   12.37
 -10  -5  11    3.03    4.49
  10   5  11   27.36    8.41
  10   0  12   19.07    5.22
 -10   0  12   25.13    3.86
  10   0 -12   17.85    6.33
  10  -2  12   65.96    7.65
 -10   2  12   71.18    7.23
 -10   2  12   76.31    7.62
  10   2 -12   65.18    8.47
 -10   2 -12   83.03    8.54
  10   2  12   75.13    8.10
 -10  -2  12   77.02    5.92
 -10   4  12   42.09    7.64
  10   4 -12   42.74    8.72
  10  -4  12   35.88    7.55
 -10   4  12   42.07    6.27
 -10  -4  12   52.77    5.36
 -10   4 -12   44.42   15.72
  10   1 -13    5.29    6.71
 -10   1  13   -2.09    4.06
  10  -1  13   -0.93    4.61
 -10  -1  13    0.66    3.43
 -10   1 -13   10.46    7.00
  10   1  13    1.15    5.01
  10  -1 -13    2.43    7.37
 -10   3  13   -1.58    5.27
  10  -3  13   13.54    6.02
  10   3 -13   -0.42    7.80
 -10   3  13   11.81    6.28
 -10  -3  13    8.12    4.03
 -10   3 -13   13.90    8.14
  10   3  13   18.82    8.18
  10   5 -13   15.33   11.10
  10  -5  13    5.15    7.41
 -10   5  13    9.18    9.44
 -10   5 -13    1.29    9.58
  10   5  13   16.87    9.28
 -10  -5  13   -2.57    5.63
  10   0 -14  -12.74    7.45
 -10   0  14   -1.41    4.35
  10   0  14    5.29    5.97
  10  -2  14  121.85   10.57
 -10   2  14  107.50   11.74
 -10   2  14  129.53   10.66
  10   2 -14   94.11   10.64
 -10   2 -14   89.26   10.89
 -10  -2  14  127.02    8.62
  10   4 -14   19.49    9.94
  10  -4  14   10.23    7.41
 -10   4  14    2.07    5.95
 -10   4  14   11.22    8.66
  10   4  14    9.00    8.70
 -10   4 -14    8.00    8.68
 -10  -4  14    2.69    5.70
  10  -1  15    3.00    6.48
 -10   1  15   -6.95    5.57
  10   1 -15   11.19    8.53
 -10  -1  15   -6.69    4.93
 -10   1 -15   21.04    8.98
  10   1  15    2.81    6.56
  10  -3  15    2.85    6.44
 -10   3  15    2.27    6.55
  10   3 -15   13.95    9.94
 -10   3  15    5.60    8.58
 -10  -3  15   -0.01    5.48
 -10   3 -15   -4.59    8.33
  10   3  15    2.31    7.45
  10   0 -16   27.37   10.44
  10   0  16   19.65    7.49
 -10   0  16   22.85    6.62
 -10   2  16   59.35    9.45
  10   2 -16   42.27   10.54
  10  -2  16   54.71    8.49
 -10   2  16   46.53    7.46
 -10  -2  16   57.82    7.75
  10   2  16   43.07    8.73
 -10   2 -16   53.73   10.48
 -10   1  17   -5.82    8.19
  10  -1  17   -1.28    7.18
  10   1 -17   -8.27   10.26
  10   1  17   12.98    7.88
 -10  -1  17    5.58    7.44
  11  -1   0    0.28    1.25
 -11   3   0   -1.04    2.35
  11   3   0    0.73    2.00
  11  -3   0   -1.86    2.22
 -11   5   0    0.84    4.80
  11  -5   0    4.26    3.73
  11   7   0   13.81    8.45
  11  -7   0   17.66    6.94
 -11   2   1   82.16    3.81
  11  -2   1   73.01    4.74
  11  -2  -1   75.29    4.67
 -11   2  -1   80.45    4.32
 -11   4   1  134.60    8.23
  11  -4   1  131.34    8.01
  11   4  -1  139.77    7.77
 -11   4  -1  126.32    8.21
  11   4   1  123.34    7.75
  11  -4  -1  125.04    7.80
 -11   6   1   19.87    6.67
  11   6  -1   36.19    6.96
  11  -6   1   44.15    6.30
 -11   6  -1   34.22    6.78
  11   6   1   41.96    7.13
  11  -6  -1   40.82    6.30
  11  -1   2   75.77    4.27
  11  -1  -2   73.02    3.95
 -11   3   2   37.55    3.52
  11   3  -2   35.69    3.47
  11  -3   2   28.82    3.56
 -11   3  -2   36.48    3.85
  11  -3  -2   36.49    3.70
  11   5  -2   18.59    5.51
 -11   5   2   12.66    4.51
  11  -5   2    9.27    4.38
 -11   5  -2   22.32    5.41
  11   5   2   17.25    4.66
  11  -5  -2   18.56    4.56
  11   7  -2    5.93    8.44
  11  -7   2   21.73    6.98
  11   7   2   17.67    7.91
  11  -7  -2    8.50    6.86
  11   0  -3  116.57    5.86
  11   0  -3  152.92    5.95
  11   0   3  146.74    6.67
  11  -2   3  169.08    8.26
 -11   2   3  137.20    7.14
  11   2  -3  156.32    7.39
 -11   2   3  185.06    7.24
 -11   2  -3  172.39    8.08
  11  -2  -3  169.45    7.89
  11   4  -3   60.01    5.86
  11  -4   3   73.68    6.09
 -11   4   3   62.59    6.12
  11  -4  -3   65.27    5.99
 -11   4  -3   64.71    6.33
  11  -6   3   48.36    7.05
  11   6  -3   58.73    7.79
 -11   6   3   60.91    7.77
  11  -6  -3   63.96    7.32
  11   6   3   67.04    7.98
 -11   6  -3   78.08    8.51
  11  -1   4    0.29    1.95
  11   1  -4    3.24    1.28
  11  -3   4    5.01    2.77
  11   3  -4    6.33    2.53
 -11   3   4    2.63    2.43
 -11   3   4    0.87    2.43
 -11   3  -4    3.77    3.28
  11  -3  -4    2.20    2.46
  11   5  -4    8.05    4.72
 -11   5   4    1.97    4.54
  11  -5   4   -3.63    4.05
  11  -5  -4   -5.78    3.80
  11   5   4    8.86    5.06
  11   7  -4   -4.26    8.30
  11  -7   4   -5.54    6.01
  11   7   4    5.71    7.32
 -11   7  -4  -10.57    6.89
  11   0   5   24.52    3.07
  11   0  -5   26.71    2.66
  11  -2   5  253.67   11.86
 -11   2   5  221.79   10.60
  11   2  -5  242.61   11.10
 -11   2   5  257.34   10.73
 -11   2  -5  249.38   11.70
 -11   4   5   27.58    4.53
 -11   4   5   29.19    4.71
  11   4  -5   28.40    4.55
  11  -4   5   30.18    4.67
 -11   4  -5   43.07    5.62
 -11   6   5   98.69   10.39
  11  -6   5   79.07    8.60
  11   6  -5   95.96    9.61
 -11   6  -5   89.85    9.26
  11   6   5   78.83    8.45
  11  -1   6   42.83    4.35
  11   1  -6   40.65    3.77
  11  -1  -6   39.18    4.18
  11   1   6   41.85    4.49
 -11   1  -6   48.22    4.29
  11   3  -6   63.15    5.84
 -11   3   6   61.09    5.13
  11  -3   6   52.08    5.66
 -11   3   6   54.11    5.16
 -11   3  -6   63.73    6.04
  11   5  -6   22.43    6.17
  11  -5   6   13.99    5.07
 -11   5   6   21.78    5.31
 -11   5  -6   20.52    6.67
  11  -7   6    6.70    7.32
 -11   7   6    2.18    7.11
  11   7  -6   10.80    9.25
 -11   7  -6   14.29    8.11
  11   7   6   21.44    8.79
  11   0   7   88.77    6.02
  11   0  -7   93.27    6.20
  11   2  -7  159.53    8.85
  11  -2   7  170.78    9.51
 -11   2   7  166.88    7.96
 -11   2   7  160.03    8.00
  11   2   7  154.05    9.47
 -11   2  -7  164.72    9.41
 -11   4   7   18.13    4.13
  11   4  -7    7.76    6.10
  11  -4   7   23.40    4.86
 -11   4   7   18.99    4.78
 -11   4  -7   12.17    5.64
 -11   6   7   51.61    7.81
  11   6  -7   60.82    8.69
  11  -6   7   57.56    8.00
  11   6   7   51.03    8.12
 -11   1   8   18.96    2.11
 -11   1   8   14.95    1.96
  11  -1   8   16.93    3.93
  11   1  -8   16.83    3.53
 -11   1  -8   16.26    4.21
  11   1   8   11.07    3.37
  11  -1  -8   20.00    4.42
  11  -3   8    0.34    3.82
 -11   3   8   -1.25    3.01
 -11   3   8    4.07    3.40
  11   3  -8   -1.18    4.27
 -11   3  -8    7.68    5.26
  11   5  -8   -5.52    6.00
 -11   5   8    5.57    5.41
 -11   5   8   -0.02    5.58
  11  -5   8    5.82    5.20
 -11   5  -8   -5.73    6.96
 -11   0   9  160.09    7.30
  11   0   9  177.75    9.77
  11   0  -9  163.99    9.83
 -11   0   9  151.37    7.23
 -11   2   9   10.43    3.17
  11   2  -9    9.87    4.30
  11  -2   9   10.81    4.38
 -11   2   9    5.07    2.66
 -11  -2   9    7.68    1.28
 -11   2  -9    8.11    4.92
  11   2   9   11.22    4.52
 -11   4   9  149.20   10.28
 -11   4   9  149.43    9.76
  11   4  -9  167.06   11.91
  11  -4   9  155.16   10.60
 -11  -4   9  135.72    7.29
 -11   4  -9  140.95   11.76
  11   6  -9    8.99    8.75
 -11   6   9   12.55    7.09
  11  -6   9   14.04    6.56
 -11   6   9    5.84   10.52
 -11   6  -9    8.02    8.45
  11   6   9    5.77    8.09
  11   1 -10   -4.85    4.53
  11  -1  10    3.68    4.21
 -11   1  10    1.77    2.37
 -11   1  10   -1.30    2.33
 -11   1 -10   12.81    5.11
 -11  -1  10   -0.12    1.64
  11   1  10    0.79    3.85
  11  -1 -10    2.86    5.47
  11   3 -10    3.11    5.80
 -11   3  10    3.81    4.49
  11  -3  10   -9.02    4.26
 -11   3  10   -0.13    3.71
  11   3  10    9.91    5.46
 -11   3 -10   -1.43    6.89
 -11  -3  10   -0.67    1.81
  11  -5  10   -1.98    5.90
 -11   5  10    6.32    6.90
  11   5 -10   -0.44    7.60
 -11   5  10    3.47    5.90
 -11  -5  10    0.66    3.57
  11   0 -11  105.76   12.11
  11   0  11  123.27    8.83
 -11   2  11   15.40    3.77
  11   2 -11   20.75    5.85
  11  -2  11   23.60    5.61
 -11   2  11   18.71    4.32
 -11   2 -11   12.82    7.48
 -11  -2  11   13.40    2.49
  11   2  11   10.19    5.09
 -11   4  11   92.05    9.10
  11   4 -11  105.07    9.92
  11   4  11   78.70    9.78
 -11   4 -11   88.85   10.43
 -11  -4  11   90.25    6.35
  11   1 -12    4.83    6.32
 -11   1  12    0.28    3.38
  11  -1  12   -2.60    4.87
 -11   1  12    4.10    3.43
  11  -1 -12    8.91    6.97
 -11  -1  12    8.15    2.89
  11   1  12    5.71    5.16
  11   3 -12   -0.80    6.99
 -11   3  12   -2.58    4.29
  11  -3  12   -1.19    5.49
 -11   3  12    1.19    5.59
 -11  -3  12    0.57    2.91
  11   3  12   -7.00    6.29
 -11   3 -12    1.65    7.01
  11   5 -12    8.81    9.37
 -11   5  12   11.05    6.32
 -11   5  12    8.14    9.05
  11  -5  12    3.83    6.96
 -11   5 -12   -1.26    8.20
  11   5  12   15.71    9.09
 -11  -5  12    1.04    4.67
  11   0 -13   17.16    7.40
 -11   0  13   14.59    3.80
  11   0  13   11.38    5.83
 -11   2  13   85.73    8.78
  11   2 -13  103.52    9.91
  11  -2  13   81.21    8.88
 -11   2  13   84.45    8.19
  11   2  13  115.68   11.18
 -11   2 -13  108.87   10.51
  11  -4  13   15.05    6.94
  11   4 -13   12.71   10.02
 -11   4  13    9.67    6.02
 -11   4  13   12.91    8.01
 -11  -4  13    9.89    4.40
  11   4  13    9.66    8.62
 -11   4 -13   -0.69   10.10
 -11   1  14   -5.35    4.74
  11   1 -14    2.76    7.22
 -11   1  14   -0.28    4.61
  11  -1 -14   -3.29    8.40
 -11  -1  14   -2.23    3.91
  11   1  14   -0.24    6.15
 -11   1 -14   12.43    8.18
  11  -3  14   -2.42    6.51
 -11   3  14    2.88    5.82
 -11   3  14   -8.43    6.78
  11   3 -14   -2.67    9.04
 -11  -3  14   -0.81    4.43
  11   3  14    4.76    7.77
 -11   0  15   15.68    5.41
  11   0 -15   12.87    9.07
  11   0  15   18.75    6.98
 -11   2  15   96.27    8.86
  11  -2  15   57.88    8.72
 -11  -2  15   72.66    6.95
  11   2  15   50.24    9.34
  11   1 -16    6.13    9.38
  11  -1  16    1.01    7.04
 -11   1  16  -11.19    6.33
  11   1  16   -6.37    7.01
 -11  -1  16   -2.69    5.90
 -11   0  17   46.04    8.15
  11   0  17   42.68    8.85
  11   0 -17    7.99   11.48
  12  -2   0   66.03    4.34
  12   4   0  120.80    7.29
  12  -4   0  112.71    7.44
 -12   4   0  104.18    7.69
 -12   6   0   71.15    8.43
  12   6   0   74.91    8.40
  12  -6   0   69.68    7.86
  12  -1   1   37.96    2.83
  12  -1  -1   31.22    2.64
  12   3  -1    6.51    2.26
 -12   3   1    4.78    2.40
  12  -3   1   10.11    2.59
 -12   3  -1    7.53    2.74
  12  -3  -1    8.32    2.66
 -12   5   1   15.18    4.92
  12  -5   1    9.43    4.29
  12   5  -1    8.39    5.15
  12   5   1   17.89    4.97
 -12   5  -1    9.98    5.15
  12  -5  -1   12.15    4.21
  12   7  -1   16.66    8.96
  12  -7   1   -1.73    5.99
  12  -7  -1    1.90    6.51
  12   7   1   19.39    8.78
  12   0   2  183.83    8.34
  12   2  -2   80.09    4.18
  12  -2   2   86.06    5.16
  12  -2  -2   76.61    4.87
 -12   2  -2   97.72    4.62
 -12   4   2   80.69    6.56
  12  -4   2   84.89    6.86
  12   4  -2   85.73    6.35
 -12   4  -2   69.46    7.06
  12  -4  -2   77.94    6.56
  12   4   2   80.36    6.46
 -12   6   2   37.78    6.89
  12  -6   2   46.91    6.91
  12   6  -2   47.13    7.65
 -12   6  -2   54.19    8.16
  12   6   2   51.26    7.41
  12  -6  -2   37.90    6.66
  12   1  -3    0.21    0.60
  12  -1   3    1.52    1.82
  12  -1  -3    1.59    1.28
  12   3  -3   -0.08    2.15
 -12   3   3    2.16    2.06
 -12   3   3    0.40    2.37
  12  -3   3    4.50    2.61
  12  -3  -3   -1.52    2.25
 -12   3  -3   -1.03    2.87
  12   5  -3   13.09    5.10
 -12   5   3    8.36    4.76
  12  -5   3   11.72    4.72
 -12   5  -3   19.20    5.72
  12  -5  -3    7.79    4.35
  12   5   3   13.36    5.17
  12  -7   3   15.33    6.78
  12   7  -3   16.00    8.78
  12   7   3   17.67    8.36
  12   0  -4   57.11    3.48
  12   0   4   65.63    4.35
  12   2  -4  250.29   11.39
  12  -2   4  270.74   12.31
  12  -2  -4  254.69   11.77
 -12   2  -4  267.98   12.03
  12   4  -4   19.49    4.07
 -12   4   4   21.87    4.04
  12  -4   4   20.36    4.21
  12  -4  -4   25.48    4.08
 -12   4  -4   20.93    4.93
  12  -6   4   60.55    9.27
  12   6  -4   50.81    7.98
 -12   6   4   67.75    8.09
 -12   6  -4   74.28    8.96
  12   6   4   66.82    7.81
  12  -1   5   24.13    3.23
  12   1  -5   18.77    2.21
  12   1   5   22.93    3.03
 -12   3   5    9.51    2.69
  12  -3   5    9.42    3.21
  12   3  -5   12.27    3.20
 -12   3   5   11.66    2.89
 -12   3  -5    9.44    4.13
  12   5  -5   -9.51    5.03
  12  -5   5    0.48    4.47
 -12   5   5   -4.56    4.64
  12   5   5   -3.50    4.82
 -12   5  -5    8.98    6.33
  12  -7   5    5.64    6.68
  12   7  -5   -1.17    9.02
 -12   7  -5   11.66    7.93
  12   7   5   15.18    8.48
  12   0  -6   71.23    5.00
  12   0   6   71.71    5.34
  12  -2   6  247.07   11.89
 -12   2   6  263.48   10.53
  12   2  -6  225.73   11.24
 -12   2   6  217.69   10.30
 -12   2  -6  249.63   11.95
 -12   4   6   -0.05    3.87
  12  -4   6    3.65    4.03
 -12   4   6    9.21    4.04
  12   4  -6    7.07    4.63
 -12   4  -6    3.42    5.13
 -12   6   6   31.13    7.04
  12   6  -6   41.03    8.46
  12  -6   6   32.67    7.24
 -12   6  -6   46.02    8.54
  12   6   6   56.64    7.89
  12   1  -7   58.44    5.03
  12  -1   7   55.31    5.56
  12   1   7   56.85    5.05
  12  -1  -7   55.29    5.24
  12  -3   7    3.90    3.61
 -12   3   7    0.60    2.97
 -12   3   7    3.18    2.80
  12   3  -7    5.96    4.00
 -12   3  -7   -4.03    4.40
  12  -5   7    9.73    5.54
 -12   5   7    1.05    5.29
 -12   5   7    4.43    5.18
  12   5  -7    9.63    6.48
 -12   5  -7   16.72    7.22
  12   0   8   51.65    5.26
  12   0  -8   55.66    5.32
 -12   2   8   17.65    2.63
  12   2  -8   18.94    4.10
  12  -2   8   25.37    4.54
 -12   2   8   18.77    2.75
 -12   2  -8   19.83    5.15
  12   2   8   26.37    4.67
 -12   4   8  209.32   11.84
  12  -4   8  203.27   12.31
 -12   4   8  197.47   11.36
  12   4  -8  218.68   12.57
  12  -6   8    7.47    6.42
 -12   6   8    9.15    6.32
 -12   6   8   18.15    8.31
  12   6  -8   24.05    8.42
  12   6   8   20.00    7.73
 -12   1   9    2.17    1.60
  12  -1   9   -2.52    3.49
 -12   1   9    2.50    1.75
  12   1  -9   -2.03    4.05
 -12   1  -9   17.54    4.81
  12  -1  -9    2.49    4.89
  12   1   9    9.21    4.03
  12  -3   9   21.25    5.11
 -12   3   9   20.82    4.34
 -12   3   9   25.88    3.97
  12   3  -9   19.62    7.47
 -12   3  -9    9.63    5.89
  12   3   9   22.01    6.13
  12   5  -9    5.29    7.80
  12  -5   9    9.58    6.23
 -12   5   9    9.12    6.55
 -12   5   9    5.24    5.96
 -12   5  -9   15.53    7.76
 -12   0  10   98.54    5.07
  12   0  10  119.04    8.31
  12   0 -10   95.07    9.05
 -12   0  10  114.94    5.27
 -12   2  10   17.05    3.28
  12   2 -10   14.70    5.70
  12  -2  10   15.03    4.91
 -12   2  10   24.27    3.65
  12   2  10   16.54    5.19
 -12   2 -10   15.42    6.10
 -12   4  10  117.52    9.06
  12   4 -10  107.71   11.18
 -12   4  10  107.04    9.86
  12  -4  10  126.51   10.52
  12   4  10  112.63   11.49
 -12   4 -10  111.76   10.97
  12  -1  11   12.62    4.79
 -12   1  11   10.98    2.76
 -12   1  11   19.57    3.03
  12   1 -11   13.91    6.12
 -12  -1  11   11.87    1.88
 -12   1 -11   13.82    6.39
  12   1  11    4.36    4.63
 -12   3  11    1.13    4.63
 -12   3  11   -2.38    3.87
  12  -3  11    6.83    5.77
  12   3 -11    0.75    6.89
 -12   3 -11   11.54    7.02
  12   3  11   -4.48    6.07
 -12  -3  11    1.26    1.83
  12  -5  11    5.51    7.05
 -12   5  11    0.39    7.68
 -12   5  11   11.24    5.85
  12   5 -11    5.20    9.35
  12   5  11    6.44    8.67
  12   0  12   49.92    6.56
  12   0 -12   51.98    8.08
 -12   0  12   40.83    4.37
 -12   0  12   58.97    4.82
  12   2 -12   42.47    7.64
 -12   2  12   54.71    5.63
 -12   2  12   39.70    4.77
  12  -2  12   33.03    6.69
 -12   2 -12   29.91    7.86
 -12  -2  12   35.85    3.62
  12   2  12   43.59    7.09
 -12   4  12   51.41    8.13
  12   4 -12   34.94    9.14
  12  -4  12   38.15    7.85
 -12   4  12   20.80    9.74
 -12   4 -12   38.12    9.33
 -12  -4  12   37.19    3.89
  12   4  12   22.84    8.71
 -12   1  13   16.04    4.24
  12   1 -13   13.79    7.70
  12  -1  13    8.91    5.83
 -12   1  13   15.29    3.90
  12   1  13   21.42    6.45
  12  -1 -13   -1.78    7.70
 -12  -1  13   21.63    3.33
  12  -3  13    7.41    6.84
 -12   3  13   -2.38    5.80
 -12   3  13    0.98    5.08
  12   3 -13   18.42    8.35
 -12   3 -13    4.92    8.02
 -12  -3  13   -1.29    2.93
  12   3  13    5.72    8.43
  12   0 -14   30.47    9.20
 -12   0  14   39.78    4.86
 -12   2  14   70.93    6.74
  12   2 -14   52.78    9.75
 -12   2  14   73.92    7.70
  12  -2  14   62.50    8.90
  12   2  14   59.20    9.25
 -12   2 -14   68.33   10.15
 -12  -2  14   81.33    6.33
  12   4 -14   12.98   10.46
 -12   4  14    1.90    5.89
 -12   4  14    8.62    9.33
  12  -4  14   -6.73    7.56
 -12   4 -14   13.71    8.91
 -12  -4  14    1.44    4.26
  12   4  14   12.76    9.75
 -12   1  15    3.98    5.07
  12   1 -15   -2.72    9.31
 -12   1  15   -8.77    5.09
  12  -1  15   -3.96    6.73
 -12  -1  15    3.05    4.38
  12   1  15    9.05    7.24
  12  -3  15    0.11    6.90
  12   3 -15   -7.60   10.25
 -12   3  15   -4.10    5.95
 -12   3  15   -9.16    8.00
 -12   3 -15   13.54    9.42
 -12  -3  15   -5.41    4.40
  12   3  15    5.40    8.73
  12   0  16   26.96    7.67
 -12   0  16   37.79    6.67
  12   0 -16   33.87   10.55
  12  -2  16   27.96    8.20
  12   2 -16   37.23   11.06
 -12   2  16   27.59    8.19
 -12   2 -16   27.99    9.70
 -12  -2  16   31.68    6.14
  12   2  16   31.59    9.21
  13  -1   0    0.88    1.44
 -13   3   0   -1.31    2.42
  13  -3   0   -1.29    2.34
  13  -5   0   -1.31    4.03
 -13   5   0    0.90    5.01
  13   5   0   -7.85    4.33
 -13   7   0   18.27   11.21
  13  -7   0    6.63    6.86
  13   7   0   -6.51    8.54
  13   0   1  287.60   12.11
  13  -2   1   15.51    2.42
  13  -2  -1   15.57    2.44
 -13   4   1  122.90    8.15
  13  -4   1  149.83    8.80
  13   4  -1  130.38    8.07
 -13   4  -1  125.32    8.30
  13  -4  -1  134.81    8.53
  13   4   1  133.09    8.20
  13   6  -1   62.82    8.16
  13  -6   1   68.14    7.74
 -13   6   1   46.74    7.98
  13  -6  -1   66.14    7.60
  13   6   1   66.93    8.20
 -13   6  -1   59.37    7.99
  13  -1   2    1.08    1.63
  13  -1  -2   -0.90    1.34
 -13   3   2   -3.12    2.10
 -13   3   2   -1.68    1.85
  13  -3   2    0.22    2.51
  13   3  -2    0.01    2.13
 -13   3  -2    1.69    2.89
  13  -3  -2    0.12    2.17
  13   5  -2   25.35    5.78
  13  -5   2   24.70    5.25
 -13   5   2   23.93    5.33
 -13   5  -2   26.14    5.99
  13   5   2   25.23    5.47
  13  -5  -2   30.36    5.25
  13  -7   2   28.26    7.45
  13   7  -2   10.85    9.09
 -13   7   2   19.77    8.24
  13   7   2   22.01    8.44
  13  -7  -2   11.42    7.38
  13   0   3  145.34    6.97
  13   0  -3  120.19    6.07
  13   0  -3  162.48    6.17
  13   2  -3  131.65    6.64
  13  -2   3  149.61    7.79
  13  -2  -3  139.40    7.30
 -13   2  -3  166.02    6.97
 -13   4   3   23.04    4.09
  13   4  -3   26.26    4.26
  13  -4   3   29.83    4.71
 -13   4  -3   27.50    5.10
  13  -4  -3   30.85    4.34
  13  -6   3   47.05   11.63
 -13   6   3   45.34    7.57
  13   6  -3   57.05    8.26
 -13   6  -3   68.60    8.67
  13   6   3   56.50    7.74
  13  -6  -3   64.72    8.90
  13   1  -4    0.62    1.19
  13  -1   4   -1.17    1.99
  13   1   4    2.74    2.16
  13  -1  -4    1.80    1.45
  13   3  -4   -0.49    2.49
 -13   3   4    0.49    2.04
  13  -3   4    1.35    3.00
 -13   3   4    0.72    2.30
  13  -3  -4    0.45    2.45
 -13   3  -4   -2.03    3.32
 -13   5   4   16.24    4.88
  13  -5   4   13.34    5.09
  13   5  -4   10.40    5.25
 -13   5  -4   20.03    6.34
  13  -5  -4   14.11    4.90
  13   5   4   16.65    5.22
  13   0   5   62.22    4.78
  13   0  -5   66.23    4.28
  13   2  -5  306.42   13.88
  13  -2   5  316.12   14.78
 -13   2  -5  323.30   14.41
 -13   4   5   -0.03    3.56
  13   4  -5   -3.48    3.75
  13  -4   5   -2.13    3.76
 -13   4   5    1.55    3.56
 -13   4  -5    5.86    4.86
 -13   6   5   35.54    7.37
  13   6  -5   42.94    8.24
  13  -6   5   49.04    7.36
 -13   6  -5   37.13    8.34
  13   6   5   43.29    7.54
  13   1  -6   17.77    2.70
  13  -1   6   19.97    3.55
  13   1   6   17.97    3.25
  13   3  -6   21.31    4.01
 -13   3   6   25.01    3.31
 -13   3   6   26.50    3.15
  13  -3   6   21.37    4.27
 -13   3  -6   25.57    4.99
 -13   5   6    1.39    4.99
  13  -5   6    4.67    5.13
 -13   5   6   -2.19    5.13
  13   5  -6    0.20    5.85
 -13   5  -6    9.43    6.78
  13   0   7   46.56    4.74
  13   0  -7   43.74    4.42
  13  -2   7   41.84    4.99
  13   2  -7   44.03    4.47
 -13   2   7   43.78    3.17
 -13   2  -7   38.21    5.20
  13   2   7   36.73    4.76
  13  -4   7  167.92   11.14
 -13   4   7  178.88    9.85
 -13   4   7  157.92    9.84
 -13   4  -7  175.53   12.08
 -13   6   7   15.51    6.19
  13   6  -7   12.67    8.13
 -13   6   7    8.46    7.47
  13  -6   7   -1.72    6.19
  13   6   7   13.47    7.93
 -13   6  -7    2.65    7.91
  13   1  -8   25.05    4.22
  13  -1   8   24.73    4.24
  13   1   8   25.36    4.18
  13  -1  -8   24.53    5.05
 -13   3   8   12.77    3.43
  13  -3   8    4.22    4.37
  13   3  -8   11.45    5.02
 -13   3   8   14.13    3.51
 -13   3  -8   15.35    5.47
  13   3   8   13.46    5.29
  13  -5   8    8.03    7.18
 -13   5   8   22.47    6.52
  13   5  -8   26.28    7.55
 -13   5   8   20.71    6.06
 -13   5  -8   15.52    7.86
  13   0   9   38.66    5.28
  13   0  -9   31.95    5.48
 -13   2   9   24.43    2.84
  13   2  -9   35.13    5.45
 -13   2   9   27.00    3.13
  13  -2   9   33.91    5.50
 -13   2  -9   30.04    5.76
  13   2   9   29.09    5.63
  13  -4   9  133.94   10.90
  13   4  -9  159.96   11.47
 -13   4   9  163.58    9.65
 -13   4   9  150.22   10.24
 -13   4  -9  134.16   12.76
 -13   6   9    5.24    8.68
  13   6  -9    1.29    8.75
  13  -6   9   21.95    7.58
 -13   6   9   -4.29    6.57
 -13   6  -9    8.58    8.31
  13   6   9    1.38    8.73
  13   1 -10   15.72    5.20
  13  -1  10   19.44    5.04
 -13   1  10    6.94    1.88
 -13   1  10    5.24    1.54
  13   1  10   11.97    4.51
  13  -1 -10    1.46    8.04
 -13   3  10    4.36    3.61
 -13   3  10   -1.71    3.76
  13  -3  10   16.23    5.18
  13   3 -10    6.67    6.43
  13   3  10    0.50    5.98
 -13   3 -10   -3.67    6.76
 -13   5  10   -5.89    5.82
  13   5 -10   -6.12    8.91
 -13   5  10   15.80    7.45
  13  -5  10   -4.15    6.48
 -13   5 -10   -4.68    8.62
  13   0  11   41.33    6.24
  13   0 -11   37.34    7.03
 -13   2  11   42.67    4.37
 -13   2  11   47.48    4.95
  13   2 -11   46.28    7.37
  13  -2  11   45.32    6.88
  13   2  11   41.46    6.81
 -13   2 -11   43.67    7.80
 -13   4  11   78.49    7.22
  13   4 -11   57.80    9.88
 -13   4  11   68.00    7.92
  13  -4  11   58.69    8.29
 -13   4 -11   61.23    9.65
  13   4  11   75.03    9.85
 -13   1  12   69.90    5.33
  13  -1  12   51.86    7.25
  13   1 -12   75.34    8.52
 -13  -1  12   58.69    3.96
  13  -1 -12   67.49    9.05
  13   1  12   62.66    7.67
 -13   3  12    8.11    5.17
 -13   3  12    1.62    4.36
  13   3 -12    7.62    7.92
  13   3  12   18.38    7.69
 -13   3 -12   -4.46    7.62
 -13   0  13   74.74    5.48
  13   0  13   52.44    7.57
  13   0 -13   73.91    9.40
 -13   0  13   68.08    5.00
  13   2 -13   70.71    9.66
 -13   2  13   45.82    5.43
 -13   2  13   68.85    6.35
 -13  -2  13   59.68    3.68
 -13   2 -13   78.68    9.77
  13   2  13   66.02    8.58
  13  -4  13    3.10    7.57
 -13   4  13   12.59    6.99
 -13   4  13   -2.98    7.66
  13   4 -13    3.79    9.64
  13   4  13   14.20    8.74
 -13  -4  13    4.90    2.43
 -13   1  14    0.46    4.05
 -13   1  14   -2.55    3.99
  13  -1  14   -6.49    5.80
  13   1 -14    0.31    8.36
  13   1  14    3.50    7.61
 -13  -1  14    0.23    2.74
 -13   3  14    1.51    6.78
  13  -3  14    5.28    6.94
  13   3 -14    8.53   10.14
 -13   3  14   -1.39    5.38
  13   3  14  -22.98    7.78
 -13  -3  14    0.89    2.68
  13   0  15   26.20    7.69
  13   0 -15   23.61   10.32
 -13   0  15   26.04    5.01
 -13   0  15   32.25    4.88
 -13   2  15   55.43    6.49
  13  -2  15   41.84    8.53
 -13   2  15   51.16    7.50
  13   2 -15   48.30   11.27
 -13  -2  15   48.83    4.80
  13   2  15   53.40    9.59
  13  -1  16   15.89    7.67
 -13   1  16    5.06    6.17
  13   1 -16    8.24   10.37
 -13   1  16   -4.80    5.19
  13   1  16    8.95    8.01
 -13  -1  16   13.96    4.84
  14   0   0  500.77   20.35
  14  -2   0   11.98    2.38
  14   4   0  215.71   11.33
  14  -4   0  223.20   11.87
 -14   4   0  221.77   11.35
 -14   6   0   32.93    7.22
  14   6   0   39.49    7.36
  14  -6   0   40.18   11.61
  14  -1   1    0.00    1.56
  14  -1  -1   -0.70    1.44
 -14   3   1    1.26    1.46
 -14   3   1   -0.05    1.93
  14  -3   1    0.77    2.74
  14   3  -1    1.30    2.26
  14  -3  -1    1.18    2.74
 -14   3  -1    2.84    2.46
  14   5  -1    3.02    5.00
  14  -5   1   -3.73    4.37
 -14   5   1    8.21    4.80
  14   5   1    4.56    5.05
 -14   5  -1    9.97    5.14
  14  -5  -1    8.20    4.89
  14   0   2  324.24   13.97
  14  -2   2   35.72    3.74
  14   2  -2   31.91    2.54
  14  -2  -2   35.70    3.54
  14   4  -2   63.95    6.14
 -14   4   2   58.63    6.04
  14  -4   2   61.97    6.11
  14   4   2   66.62    6.44
 -14   4  -2   64.57    6.91
  14  -4  -2   68.03    6.15
 -14   6   2   51.14    7.62
  14  -6   2   42.27   10.20
  14   6  -2   62.45    8.56
 -14   6  -2   74.68    8.74
  14   6   2   64.12    8.63
  14  -1   3    6.38    2.22
  14   1  -3    9.19    0.89
  14  -1  -3    8.85    1.69
 -14   3   3    7.13    1.86
 -14   3   3    2.97    1.49
  14   3  -3    6.84    2.43
  14  -3   3    2.65    2.93
 -14   3  -3    8.55    3.24
  14  -3  -3   10.51    2.90
 -14   5   3   37.80    5.85
  14   5  -3   52.32    6.54
  14  -5   3   49.69    6.49
  14   5   3   51.78    6.60
  14  -5  -3   53.52    6.39
 -14   5  -3   44.42    7.06
  14   0  -4   76.06    4.36
  14   0   4   92.24    5.38
  14  -2   4  261.98   12.39
  14   2  -4  256.03   11.39
  14  -2  -4  259.42   11.88
  14   4  -4    1.81    3.72
  14  -4   4    5.00    3.80
 -14   4   4    1.52    3.31
 -14   4   4    0.62    3.45
  14  -4  -4    2.50    3.97
 -14   4  -4    7.57    5.12
 -14   6   4   56.64    7.99
  14  -6   4   60.70    8.05
  14   6  -4   51.47    8.45
  14   6   4   65.99    8.51
 -14   6  -4   53.99    8.71
  14  -1   5    1.16    2.80
  14   1  -5    4.18    1.89
  14   1   5    8.78    2.60
  14  -3   5   43.21    4.85
  14   3  -5   37.40    4.21
 -14   3   5   43.19    3.72
 -14   3   5   33.68    3.04
 -14   3  -5   41.19    4.97
 -14   5   5   17.24    5.42
 -14   5   5   27.74    5.49
  14   5  -5   25.05    6.11
  14  -5   5   33.14    6.02
 -14   5  -5   18.98    7.26
  14   0   6   11.87    3.26
  14   0  -6   10.83    2.84
  14   2  -6  112.57    7.12
  14  -2   6  112.31    7.92
 -14   2  -6  139.82    7.78
  14   2   6  123.19    7.98
 -14   4   6   86.22    7.31
  14   4  -6   99.21    8.90
  14  -4   6   97.94    8.20
 -14   4   6   95.78    6.98
 -14   4  -6   91.39    9.32
 -14   6   6   14.56    7.11
  14  -6   6   12.46    6.80
 -14   6   6    5.69    7.12
  14   6  -6   16.61    7.69
  14   6   6   16.04    7.38
 -14   6  -6   22.25    8.07
  14   1  -7   16.63    3.44
  14  -1   7   18.30    4.06
  14   1   7   10.38    3.60
 -14   3   7    4.33    2.42
  14   3  -7    9.65    4.51
 -14   3   7    3.96    2.65
  14  -3   7    2.72    4.30
 -14   3  -7    9.00    5.49
 -14   5   7   16.03    5.72
  14   5  -7    4.41    6.99
 -14   5   7    6.36    5.41
 -14   5  -7    4.18    7.70
  14   0  -8   27.50    4.73
  14   0   8   37.50    4.75
  14   2  -8   45.69    5.23
  14  -2   8   53.70    6.14
  14   2   8   49.40    5.74
 -14   2  -8   48.73    5.90
  14   4  -8  129.27   11.23
 -14   4   8  137.49    8.84
 -14   4   8  120.39    8.79
  14  -4   8  130.33   10.03
 -14   4  -8  124.15   11.66
 -14   6   8   19.46    6.73
  14   6  -8   -2.87    8.68
  14  -6   8    5.31    6.61
 -14   6   8  -14.64    8.34
  14   6   8   -1.10    7.86
  14  -1   9   -2.93    4.14
  14   1  -9   -0.01    4.45
  14   1   9    7.48    4.42
  14  -3   9   -0.33    4.99
 -14   3   9    1.42    2.94
 -14   3   9    6.09    3.45
 -14   3  -9   -1.84    5.72
  14   3   9   12.56    5.95
 -14   5   9   -5.75    5.67
 -14   5   9   11.42    6.82
  14   5  -9   12.23    8.23
  14  -5   9    1.51    6.48
 -14   5  -9   -0.45    8.49
  14   0 -10   14.78    6.11
  14   0  10   25.09    5.40
 -14   2  10   36.77    3.88
  14  -2  10   37.76    6.47
 -14   2  10   31.13    3.16
  14   2  10   46.15    6.68
 -14   2 -10   39.78    6.79
  14  -4  10  116.95   15.57
 -14   4  10  122.84    9.71
 -14   4  10  103.72    9.02
  14   4 -10  125.53   12.71
 -14   4 -10   90.76   10.62
  14   4  10  103.14   11.12
  14  -1  11   52.40    7.05
  14   1 -11   54.12    7.28
  14   1  11   67.83    7.29
 -14   3  11   -4.59    4.01
 -14   3  11   -0.59    3.87
  14  -3  11    5.61    6.01
  14   3 -11    0.51    7.17
 -14   3 -11    2.02    7.44
  14   3  11    2.78    6.64
 -14   5  11    3.16    7.29
  14  -5  11   -5.74    6.90
  14   5 -11    0.29    8.88
 -14   5  11    2.63    8.13
  14   5  11    1.03    8.53
  14   0  12   55.75    7.40
  14   0 -12   51.01    8.80
 -14   2  12   61.53    5.72
  14   2 -12   47.60    8.46
  14  -2  12   55.79    8.16
 -14   2  12   70.57    5.55
  14   2  12   57.06    7.78
 -14   4  12    9.25    6.98
 -14   4  12    8.91    5.77
  14  -4  12   10.22    7.58
  14   4 -12   26.14    9.42
 -14   4 -12   22.96    9.01
  14   4  12   11.96    8.96
 -14   1  13   20.91    3.27
  14  -1  13   17.79    6.68
 -14   1  13   16.88    2.93
  14   1 -13   21.75    8.35
  14   1  13   24.90    7.12
  14   3 -13    6.55    9.18
 -14   3  13    8.09    5.52
 -14   3  13    4.50    4.98
  14  -3  13   14.92    7.59
  14   3  13   -7.31    7.03
 -14   3 -13   -0.19    8.48
 -14   0  14   33.59    3.33
 -14   0  14   36.91    3.70
  14   0  14   40.37    7.79
  14   0 -14   32.20   10.29
  14   2 -14   60.84   10.21
 -14   2  14   49.24    5.58
  14  -2  14   61.39    9.22
 -14   2  14   64.00    6.16
 -14   2 -14   47.60   10.02
  14   2  14   58.19    9.00
 -14   1  15   -1.43    4.23
 -14   1  15    6.37    4.23
  14   1 -15    7.65   10.01
  14  -1  15    4.92    7.40
 -14  -1  15   -1.71    2.07
  14   1  15    8.91    7.55
  15  -1   0   -0.87    1.50
  15  -3   0   -1.54    2.61
 -15   5   0    8.41    5.02
  15   5   0   -1.98    4.98
  15  -5   0    6.36    4.69
  15   0   1  485.05   20.23
  15  -2   1    4.88    2.33
  15  -2  -1    2.55    2.16
  15  -4   1  104.38    8.19
 -15   4   1  104.03    7.04
  15   4  -1   99.48    7.35
  15  -4  -1   92.60    7.75
  15   4   1  101.92    7.72
 -15   4  -1  103.23    7.40
  15   6  -1   47.05    7.76
  15  -6   1   34.52    7.21
  15  -6  -1   33.75    8.64
  15   6   1   39.36    7.87
 -15   6  -1   42.02    8.99
  15  -1   2   -2.49    1.86
  15  -1  -2   -1.15    1.55
  15   3  -2    3.76    2.36
  15  -3   2    7.92    3.06
  15  -3  -2    2.12    2.75
 -15   3  -2    5.42    2.42
 -15   5   2   26.86    5.59
  15  -5   2   22.39    5.65
  15   5  -2   26.02    5.81
 -15   5  -2   27.61    6.02
  15   5   2   21.99    5.72
  15  -5  -2   28.33    5.95
  15   0  -3   59.94    3.46
  15   0  -3   78.51    3.55
  15   0   3   77.69    4.75
  15   2  -3  157.63    7.59
  15  -2   3  172.29    8.86
  15  -2  -3  184.03    8.52
 -15   4   3    6.98    2.86
  15  -4   3    3.24    3.90
  15   4  -3    3.83    3.80
 -15   4   3    5.73    3.47
  15  -4  -3    8.85    4.22
 -15   4  -3    9.27    4.57
  15   6  -3   74.56    9.16
  15  -6   3   89.66    9.28
 -15   6  -3   76.82    9.05
  15  -6  -3   70.02    9.05
  15   6   3   79.90    9.13
  15  -1   4   -0.47    2.43
  15   1  -4    0.43    1.28
  15   1   4   -0.08    2.29
  15  -1  -4    0.56    1.68
  15  -3   4   45.40    5.12
  15   3  -4   39.55    4.06
  15  -3  -4   50.15    4.74
 -15   3  -4   50.56    4.65
 -15   5   4   41.76    5.74
  15   5  -4   53.27    6.78
  15  -5   4   46.16    6.85
 -15   5   4   44.67    6.07
 -15   5  -4   34.11    7.33
  15   5   4   55.30    7.10
  15  -5  -4   54.49    6.79
  15   0   5   14.00    3.04
  15   0  -5   10.30    2.49
  15  -2   5  144.86    8.45
  15   2  -5  138.99    7.40
 -15   4   5   60.46    6.05
  15   4  -5   70.36    6.34
 -15   4   5   55.03    5.22
  15  -4   5   58.43    6.38
 -15   4  -5   66.73    6.92
 -15   6   5   29.69    7.68
  15   6  -5   31.51    8.56
  15  -6   5   51.73    7.87
 -15   6  -5   31.74    8.15
  15   6   5   50.32    8.35
  15   1  -6   27.23    3.22
  15  -1   6   33.06    4.45
  15   1   6   26.50    3.91
  15   3  -6    5.47    4.10
  15  -3   6    9.88    4.28
 -15   3  -6    6.77    4.33
 -15   5   6   11.54    5.29
 -15   5   6    3.06    5.24
  15  -5   6   -3.35    5.40
  15   5  -6   -1.72    5.90
 -15   5  -6    1.19   10.83
  15   0  -7   22.87    4.17
  15   0   7   18.73    4.04
  15   2  -7   98.33    7.10
  15  -2   7   95.81    7.95
  15   2   7   92.87    7.73
 -15   4   7   70.25    6.31
  15   4  -7   87.46    9.62
 -15   4   7   66.22    6.61
  15  -4   7   67.14    7.38
 -15   4  -7   64.82    7.84
 -15   6   7   19.89    7.17
  15  -6   7   15.01    7.42
  15   6  -7   19.97    8.81
 -15   6   7   -1.39    7.86
  15   6   7    4.48    7.72
 -15   6  -7   22.49    8.77
  15  -1   8   10.23    4.27
  15   1  -8   12.18    4.17
  15   1   8    8.82    4.11
 -15   3   8   10.77    2.55
  15   3  -8    7.26    5.40
  15  -3   8   12.23    5.00
 -15   3   8    4.80    1.78
 -15   3  -8   10.31    5.82
  15   3   8    7.95    5.75
 -15   5   8   10.63    5.98
  15  -5   8   11.17    6.33
  15   5  -8   -2.27    7.76
 -15   5   8   -4.19    5.47
 -15   5  -8   10.89    8.26
  15   0  -9   30.84    5.63
  15   0   9   27.92    5.22
  15   2  -9   42.44    6.04
  15  -2   9   32.50    6.12
 -15   2  -9   51.07    6.66
  15   2   9   36.01    5.84
  15  -4   9  139.65   11.11
 -15   4   9  130.89    9.14
  15   4  -9  132.90   12.36
 -15   4   9  134.23    9.38
  15   4   9  152.58   12.42
  15   1 -10   24.68    6.19
  15  -1  10   33.72    5.97
  15   1  10   23.23    5.46
 -15   3  10   -1.13    3.06
  15  -3  10    3.94    6.02
 -15   3  10   -2.58    2.67
  15   3 -10   -0.21    6.56
 -15   3 -10    7.44    7.04
  15   3  10   -5.66    5.84
 -15   5  10   17.04    7.43
  15   5 -10   11.91    8.93
 -15   5  10   -5.37    5.73
  15  -5  10    3.74    7.07
 -15   5 -10    1.26    8.35
  15   5  10    7.55    8.76
  15   0  11   69.72    7.89
  15   0 -11   71.79    8.57
  15   2 -11   26.13    7.15
  15  -2  11   28.46    6.76
  15   2  11   27.31    6.90
 -15   2 -11   29.67    7.40
  15   4 -11   52.31    9.69
  15  -4  11   55.87    8.60
 -15   4  11   46.53    6.29
 -15   4  11   42.57    6.54
  15   4  11   51.37   16.24
 -15   4 -11   43.02    8.84
  15  -1  12   30.64    6.69
  15   1 -12   30.23    7.91
  15   1  12   29.77    6.76
  15  -3  12    2.61    6.92
  15   3 -12    3.98    8.58
 -15   3  12   -1.66    3.81
 -15   3  12    9.48    4.43
 -15   3 -12   -0.12    8.57
  15   3  12    1.10   11.26
  15   0  13   31.45    7.53
  15   0 -13   30.67    9.17
 -15   2  13   52.03    4.80
 -15   2  13   56.58    5.77
  15   2 -13   70.19   10.10
  15  -2  13   64.59    8.95
 -15   1  14    3.03    1.76
  15   1 -14   -0.55    8.85
  15  -1  14   -0.87    6.66
  15   1  14    3.41    6.71
  15   0 -15   10.23   10.42
  15   0  15   20.69    7.99
  16   0   0  452.83   18.72
  16  -2   0   61.09    4.81
 -16   4   0   25.25    4.05
  16  -4   0   21.88    4.56
  16   4   0   23.90    4.51
  16   6   0   36.41    8.18
  16  -6   0   31.22    7.02
 -16   6   0   43.68    7.54
  16  -1   1    1.93    1.85
  16  -1  -1    3.73    1.77
  16   3  -1   13.36    2.88
  16  -3   1    8.63    3.32
  16  -3  -1   14.93    3.57
  16  -5   1    8.58    5.21
  16   5  -1   12.30    5.54
 -16   5   1   17.07    5.35
  16  -5  -1    9.12    5.36
  16   5   1   11.91    5.61
 -16   5  -1   21.69    5.82
  16   0  -2  167.58    6.59
  16   0   2  133.05    7.51
  16   2  -2   85.25    4.45
  16  -2   2   88.42    5.95
  16  -2  -2   93.91    5.67
 -16   4   2   41.06    3.90
 -16   4   2   27.32    2.95
  16  -4   2   38.51    5.62
  16   4  -2   31.09    4.61
 -16   4  -2   32.94    4.98
  16  -4  -2   32.70    5.03
  16   6  -2   48.00    8.89
  16  -6   2   51.56    8.02
 -16   6   2   45.95    7.67
  16  -6  -2   56.84    8.22
  16   6   2   56.31    8.88
  16   1  -3    0.46    0.58
  16  -1   3    0.10    2.27
  16   1   3   -2.84    1.92
  16  -1  -3    2.11    1.62
  16   3  -3   29.92    3.51
  16  -3   3   37.60    4.71
  16  -3  -3   37.47    4.29
  16   5  -3   31.24    6.12
  16  -5   3   28.28    6.01
 -16   5   3   31.59    5.58
 -16   5   3   26.86    4.89
 -16   5  -3   39.61    6.95
  16   5   3   28.23    6.04
  16  -5  -3   32.61    6.36
  16   0  -4   11.77    2.09
  16   0   4   13.00    2.91
  16   2  -4   88.57    5.36
  16  -2   4  100.94    6.66
  16  -2  -4  107.22    6.15
  16  -4   4   48.67    6.04
  16   4  -4   50.06    5.46
 -16   4   4   47.85    4.93
 -16   4   4   39.10    3.85
  16  -4  -4   45.94    5.90
 -16   4  -4   45.73    6.02
 -16   6   4   70.86    8.15
 -16   6   4   55.18    7.96
  16   6  -4   67.67    9.26
  16  -6   4   70.77    8.99
 -16   6  -4   65.13    9.65
  16   6   4   64.37    9.20
  16  -1   5   35.50    4.15
  16   1  -5   31.13    3.26
  16   1   5   35.31    3.98
  16   3  -5    7.86    3.65
  16  -3   5    4.23    4.06
 -16   3  -5   11.56    3.80
 -16   5   5    0.00    4.97
 -16   5   5    5.19    4.58
  16   5  -5   -6.86    5.95
  16  -5   5    4.56    5.83
 -16   5  -5    2.97    6.96
  16   0   6    7.10    3.57
  16   0  -6   10.73    3.20
  16   2  -6  122.90    7.54
  16  -2   6  136.80    8.74
  16   2   6  123.15    8.47
  16   4  -6   37.05    6.08
 -16   4   6   34.80    3.50
 -16   4   6   38.22    3.98
  16  -4   6   32.05    6.06
 -16   4  -6   41.16    6.74
  16  -1   7   26.55    4.70
  16   1  -7   24.90    3.96
  16   1   7   29.87    4.63
  16   3  -7   19.97    5.13
  16  -3   7   13.25    5.08
 -16   3  -7   15.66    5.44
 -16   5   7   20.61    5.51
  16   5  -7    9.33    7.46
  16  -5   7   -3.38    6.04
 -16   5   7   13.63    5.62
  16   0  -8   21.79    4.99
  16   0   8   18.76    4.76
  16   2  -8   62.03    6.06
  16  -2   8   61.50    6.81
  16   2   8   57.48    6.34
 -16   4   8   91.94    6.33
  16   4  -8  101.76    9.48
 -16   4   8  103.10    7.34
  16  -4   8   88.05    8.84
 -16   4  -8   93.45    9.39
  16  -1   9    6.03    4.86
  16   1  -9    2.54    4.75
  16   1   9    1.76    4.51
  16  -3   9   -3.12    5.31
  16   3  -9    8.37    6.33
  16   3   9   -2.30    5.58
 -16   3  -9   -6.64    6.29
 -16   5   9    4.79    5.64
  16  -5   9    4.47    7.02
 -16   5   9    5.43    6.08
  16   5  -9   13.52    9.08
 -16   5  -9  -12.41    8.22
  16   0  10  122.59    9.50
  16   0 -10  136.68   11.78
  16  -2  10   17.15    6.25
  16   2 -10    2.74    7.16
  16   2  10   10.07    5.41
  16   4 -10   77.60   10.21
 -16   4  10   87.01    7.09
 -16   4  10   81.42    7.91
  16  -4  10   87.30    9.39
  16   4  10   65.99   10.36
 -16   4 -10   70.60   12.21
  16  -1  11   11.49    5.78
  16   1 -11    0.04    6.67
  16   1  11   11.37    6.04
 -16   3  11    1.58    1.86
  16   3 -11    3.39    7.89
  16   3  11    2.28    6.70
 -16   3 -11   -1.19    7.90
  16   0  12   60.11    7.91
  16   0 -12   41.75    8.54
  16  -2  12   30.40   13.01
  16   2 -12   25.86    7.73
  16   2  12   18.38    7.13
  16   1 -13    3.26    7.85
  16  -1  13   -6.55    6.76
  16  -3  13   -4.51    7.88
 -16   3  13    6.39    3.68
  16   0  14   13.48    7.62
  16   0 -14   26.22    9.98
  17  -1   0   -1.25    1.75
  17  -3   0    1.90    3.24
  17   5   0   -3.73    5.44
  17  -5   0   -3.51    5.06
 -17   5   0    4.03    5.32
  17   0  -1  267.70   11.18
  17  -2   1   97.12    6.31
  17  -2  -1  100.54    6.22
  17   4  -1   25.53    4.52
  17  -4   1   13.55    4.56
  17  -4  -1   14.36    4.93
 -17   4  -1   21.04    3.30
  17   4   1   20.46    4.67
 -17   6   1   39.00    7.31
  17   6  -1   16.32    7.98
  17  -6   1   30.24    7.61
  17  -6  -1   37.77    7.81
  17   6   1   26.90    8.49
 -17   6  -1   14.11    7.56
  17  -1   2    1.27    2.19
  17  -1  -2    1.07    1.72
  17  -3   2   72.60    6.34
  17   3  -2   67.29    5.21
  17  -3  -2   78.85    6.18
 -17   5   2   28.41    4.43
  17   5  -2   27.08    6.23
  17  -5   2   26.51    6.69
 -17   5   2   30.64    5.29
  17  -5  -2   38.91    6.57
 -17   5  -2   30.63    6.44
  17   5   2   30.54    6.38
  17   0   3   66.95    5.13
  17   0  -3   68.98    3.71
  17  -2   3   45.43    4.55
  17   2  -3   42.18    3.19
  17  -2  -3   47.71    4.40
  17   4  -3   83.79    7.54
  17  -4   3   74.10    7.25
 -17   4  -3   80.27    7.14
  17  -4  -3   74.62    7.00
 -17   6   3   45.27    7.40
  17   6  -3   51.12    8.73
  17  -6   3   45.82    8.29
 -17   6   3   29.71    7.18
  17   6   3   43.07    8.12
  17  -6  -3   48.77    8.47
 -17   6  -3   64.95   11.53
  17   1  -4   13.02    1.72
  17  -1   4   19.82    3.41
  17  -1  -4   15.59    2.42
  17   1   4   16.02    3.08
  17   3  -4   -1.42    2.96
  17  -3   4   -7.54    3.64
  17  -3  -4    0.23    3.36
 -17   5   4   -2.45    3.88
 -17   5   4   11.25    4.91
  17   5  -4    5.29    5.92
  17  -5   4    0.28    5.66
  17  -5  -4   -7.54    5.40
  17   5   4   -7.77    6.09
 -17   5  -4    9.68    6.94
  17   0   5    3.75    3.22
  17   0  -5    1.50    2.62
  17  -2   5  139.76    8.40
  17   2  -5  120.93    7.09
  17  -4   5   25.27    5.69
  17   4  -5   28.65    5.52
 -17   4  -5   38.62    5.89
  17  -1   6   16.24    3.87
  17   1  -6   13.29    3.07
  17   1   6   18.77    3.91
  17   3  -6   19.10    4.60
  17  -3   6    5.25    4.57
 -17   3  -6   21.33    4.29
 -17   5   6    2.42    4.95
  17   5  -6   -0.12    6.92
 -17   5   6    0.77    4.22
  17  -5   6    9.13    6.83
 -17   5  -6   13.03    7.79
  17   0  -7   14.50    4.46
  17   0   7   17.99    4.57
  17  -2   7   99.57    8.47
  17   2  -7   89.59    7.03
  17   2   7   71.36    7.81
  17   4  -7   55.43    7.51
  17  -4   7   49.80    7.62
 -17   4  -7   62.29    7.85
  17  -1   8    3.93    4.65
  17   1  -8    9.08    4.33
  17   1   8    2.07    4.22
  17  -3   8   20.63    6.03
  17   3  -8   17.81    5.83
  17   3   8   35.72    6.60
 -17   3  -8   29.20    6.28
  17   5  -8   11.77    8.55
 -17   5   8    1.35    4.93
  17  -5   8    3.97    7.17
 -17   5   8   -2.42    5.05
  17   0   9  150.14    9.98
  17   0  -9  136.91   10.95
  17  -2   9   32.44    6.47
  17   2  -9   13.37    5.56
  17   2   9   26.85    5.97
  17   4  -9   71.01    9.37
  17  -4   9   60.09    8.52
  17   4   9   63.74   10.04
 -17   4  -9   71.30    9.47
  17   1 -10    3.88    6.70
  17  -1  10   17.47    5.96
  17   1  10   -2.86    5.51
  17  -3  10   -3.52    6.19
  17   3 -10   11.51    7.16
  17   3  10    4.57    6.97
 -17   3 -10    5.97    7.30
  17   0 -11   87.54    9.51
  17   0  11   83.40    8.77
  17   2 -11    5.27    7.09
  17  -2  11   30.42    7.35
  17   2  11    7.33    6.60
  17  -1  12   11.50    6.65
  17   1 -12   13.48    7.57
  17   1  12    3.39    6.76
  17   3 -12   30.31    9.16
  17  -3  12   10.64    7.99
  17   3  12    8.12    8.64
  17   0 -13   25.95    9.65
  17   0  13   17.94    9.12
  17   2 -13   26.97    9.06
  17  -2  13   37.53    8.42
  17   2  13   18.72    8.68
  18   0   0  174.54    8.08
  18  -2   0   69.52    5.51
  18   4   0   59.38    5.68
  18  -4   0   48.97    6.41
  18  -1   1   16.83    2.62
  18  -1  -1   18.64    2.46
  18  -3   1   26.26    4.58
  18   3  -1   33.24    3.64
  18  -3  -1   36.17    4.60
  18   5  -1    6.88    5.86
 -18   5   1    3.70    3.18
  18  -5   1    0.67    6.04
 -18   5   1    6.27    4.61
 -18   5  -1    3.91    5.15
  18  -5  -1    2.05    5.78
  18   5   1    4.87    6.02
  18   0  -2  234.74    9.60
  18   0   2  208.50   10.41
  18   2  -2   23.69    2.50
  18  -2   2   27.25    3.81
  18  -2  -2   22.93    3.33
  18  -4   2   64.28    6.92
  18   4  -2   56.76    5.76
  18  -4  -2   71.36    6.96
  18   1  -3   -0.32    0.68
  18  -1   3    2.87    2.64
  18  -1  -3    2.25    1.86
  18   1   3    4.59    2.47
  18   3  -3   29.71    3.72
  18  -3   3   36.79    4.95
  18  -3  -3   33.28    4.50
  18  -5   3    3.70    6.34
 -18   5   3    5.56    2.69
  18   5  -3   15.41    6.35
 -18   5   3   11.73    4.10
  18  -5  -3    5.55    6.00
  18   5   3    3.03    6.33
 -18   5  -3   11.22    6.35
  18   0   4   17.34    3.46
  18   0  -4   11.85    2.34
  18  -2   4   82.84    6.63
  18   2  -4   77.58    4.94
  18  -2  -4   87.18    5.96
  18  -4   4   54.72    6.94
  18   4  -4   46.03    5.84
  18  -4  -4   58.66    6.66
 -18   4  -4   70.91    6.20
  18  -1   5   -8.35    3.28
  18   1  -5    0.51    2.13
  18   1   5    2.69    3.20
  18  -3   5    3.91    4.37
  18   3  -5    4.98    3.94
  18  -5   5    8.20    7.55
 -18   5   5    2.04    3.89
  18   5  -5   14.75    6.79
 -18   5   5    4.40    2.61
 -18   5  -5    2.22    7.09
  18   0   6   18.77    4.34
  18   0  -6    8.57    3.51
  18   2  -6  104.24    6.99
  18  -2   6  103.55    8.20
  18   2   6  107.07    8.20
  18  -4   6   20.58    6.27
 -18   4  -6   24.95    5.96
  18  -1   7    3.73    4.65
  18   1  -7    0.46    3.71
  18   1   7   -3.51    3.90
  18   3  -7   19.82    5.28
  18  -3   7    8.33    5.55
  18   3   7   23.29    6.39
  18  -5   7   10.75    7.04
  18   5  -7   -0.35    8.15
 -18   5   7   13.06    3.98
 -18   5   7    2.58    2.72
 -18   5  -7    8.36    8.11
  18   0   8  136.21    9.71
  18   0  -8  123.12    9.99
  18  -2   8   46.80    6.90
  18   2  -8   39.18    5.58
  18   2   8   30.22    6.18
  18   4  -8   37.64    7.68
 -18   4  -8   24.31    7.62
  18  -1   9   -3.28    5.14
  18   1  -9   -6.09    5.30
  18   1   9   -5.25    4.75
  18   3  -9    3.51    6.56
  18  -3   9    5.16    6.25
  18   3   9    1.35    6.91
  18   0 -10   76.98   12.45
  18   0  10  110.04   10.42
  18  -2  10   22.42    7.26
  18   2 -10   11.81    6.62
  18   2  10   20.22    6.50
  18   1 -11   14.86    7.52
  18  -1  11   -0.89    6.72
  18   1  11   10.71    6.55
  18   3 -11   24.60    8.53
  18  -3  11   18.48    7.96
  18   3  11   19.29    8.88
  18   0 -12   15.68    8.97
  18   0  12   17.11    7.44
  18  -2  12   27.59    8.02
  18   2 -12   12.81    8.57
  18   2  12   23.40   11.55
  18   1 -13   14.04    9.24
  18  -1  13   -0.83    7.67
  18   1  13   -0.02    8.12
  19  -1   0    1.93    2.17
  19  -3   0    2.06    3.88
  19  -5   0    5.87    6.45
  19   5   0    2.56    6.22
  19   0   1  198.27    9.39
  19  -2   1   14.03    3.44
  19  -2  -1   16.18    3.30
  19  -4   1   87.61    9.29
  19   4  -1   98.76    8.24
  19  -4  -1  107.74    9.24
  19   4   1  109.34    8.81
  19  -1   2   15.48    2.99
  19   1   2   18.61    2.79
  19  -1  -2   20.90    2.59
  19  -3   2   20.17    4.60
  19   3  -2   19.13    3.18
  19  -3  -2   13.70    3.86
  19  -5   2   -2.70    6.51
  19   5  -2   12.80    6.47
  19   5   2    6.69    6.28
 -19   5  -2    6.80    4.52
  19  -5  -2    6.34    6.52
  19   0   3   49.55    5.02
  19   0  -3   42.64    3.42
  19   2  -3   67.41    4.18
  19  -2   3   76.31    6.32
  19  -2  -3   72.06    5.57
  19   4  -3   41.39    5.42
  19  -4   3   40.17    6.21
  19  -4  -3   45.59    6.40
  19  -1   4   17.91    3.81
  19   1  -4   11.74    1.75
  19  -1  -4   16.81    2.69
  19   1   4    9.94    3.17
  19  -3   4   16.47    4.80
  19   3  -4   10.69    3.60
  19  -3  -4    3.72    3.90
  19  -5   4    1.89    7.62
  19   5  -4   -9.94    6.33
  19   5   4   -1.44    6.70
  19  -5  -4    2.02    6.84
 -19   5  -4   -2.80    5.79
  19   0   5   12.35    3.86
  19   0  -5    5.37    2.85
  19   2  -5   88.61    6.14
  19  -2   5   94.30    7.81
  19   2   5  101.25    7.68
  19  -4   5   16.32    6.25
  19   4  -5   19.37    5.59
  19  -1   6    7.92    4.37
  19   1  -6   -4.64    3.11
  19   1   6   -3.27    3.87
  19  -3   6   10.28    5.35
  19   3  -6   13.51    4.75
  19   0   7  101.91    8.66
  19   0  -7   82.26    8.06
  19   2  -7   51.59    5.28
  19  -2   7   60.96    6.90
  19   2   7   37.28    5.85
  19   4  -7   14.75    7.18
  19  -4   7   30.14    6.83
 -19   4  -7   26.71    6.01
  19   1  -8    5.26    4.74
  19  -1   8    4.69    5.05
  19   1   8    3.37    5.17
  19  -3   8   -1.00    6.38
  19   3  -8   11.39    6.30
  19   3   8    0.54    6.32
  19   0  -9  108.61   10.65
  19   0   9  107.92   10.18
  19  -2   9   15.21    6.85
  19   2  -9   20.45    6.20
  19   2   9   18.64    6.26
  19  -1  10    8.04    6.08
  19   1 -10   -2.50   10.58
  19   1  10   -2.66    6.31
  19  -3  10   14.14    7.73
  19   3 -10    8.38    7.86
  19   3  10    5.52    7.63
  19   0  11   38.69    8.16
  19   0 -11   43.74    9.09
  19   2 -11   11.04    7.73
  19   2  11   19.78    7.84
  19  -1  12   -7.48    9.28
  19   1 -12    8.19    8.50
  19   1  12    4.53    8.11
  20  -2   0    9.52    3.29
  20  -4   0  165.52   11.39
  20   4   0  141.75    9.99
  20  -1   1   -0.37    2.40
  20  -1  -1   -0.88    2.20
  20   3  -1    1.98    2.89
  20  -3   1   -4.28    4.24
  20  -3  -1    2.21    3.97
  20  -5   1   -3.48    6.43
  20   5  -1    8.63    6.49
  20   5   1   -9.47    6.31
  20  -5  -1    0.85    7.07
  20   0   2   14.31    2.82
  20   0  -2   12.77    2.28
  20   2  -2   71.78    4.16
  20  -2   2   86.07    6.45
  20  -2  -2   85.35    6.15
  20  -4   2   83.62    8.10
  20   4  -2   74.57    7.66
  20  -4  -2   66.44    7.38
  20   4   2   84.73    7.45
  20  -1   3   37.44    4.17
  20   1   3   32.49    3.89
  20  -1  -3   32.84    3.15
  20   3  -3   -0.79    3.02
  20  -3   3   -0.84    4.43
  20  -3  -3   -0.74    3.87
  20   0   4   30.65    4.23
  20  -2   4  107.07    8.02
  20   2  -4  113.46    6.25
  20   2   4  111.79    7.93
  20  -2  -4  113.84    7.39
  20   4  -4    6.93    5.14
  20  -4   4    5.83    5.72
  20  -4  -4   -4.58    5.35
  20  -1   5    2.45    3.82
  20   1  -5    3.23    2.62
  20   1   5    5.92    3.88
  20  -3   5   -8.35    4.41
  20   3  -5    6.98    4.30
  20   0   6   90.66    8.00
  20  -2   6   64.07    7.03
  20   2  -6   53.71    4.88
  20   2   6   53.02    6.00
  20   4  -6   27.77    8.75
  20  -4   6    7.85    6.74
  20  -1   7   10.18    5.34
  20   1  -7    3.65    4.17
  20   1   7   13.37    4.91
  20  -3   7   13.57    6.35
  20   3  -7   10.33    5.54
  20   3   7    8.43    6.24
  20   0  -8   94.45    8.21
  20   0   8  105.89    9.77
  20  -2   8   17.78    6.59
  20   2  -8   17.75    5.24
  20   2   8   17.81    6.07
  20   1  -9    3.08    5.84
  20  -1   9    1.12    6.15
  20   1   9   10.27    5.77
  20  -3   9  -10.22   10.17
  20   3  -9   -2.66    7.21
  20   3   9   -2.79    7.12
  20   0 -10   50.45    9.07
  20   0  10   75.07    9.00
  20   2 -10   -5.32    6.96
  20  -2  10   -0.20    7.11
  20   2  10    6.26    7.11
  20  -1  11   19.51    7.63
  20   1 -11    0.69    7.95
  20   1  11  -16.97    7.27
  21  -1   0    2.49    2.65
  21   3   0    0.68    3.40
  21  -3   0   -3.81    4.34
  21   0  -1   14.61    2.86
  21   0   1   17.95    2.65
  21  -2   1   40.89    4.79
  21  -2  -1   42.78    4.68
  21   4  -1  118.13    9.31
  21  -4   1  101.52   10.69
  21   4   1  123.42    9.77
  21  -4  -1  126.75   10.45
  21  -1   2    7.23    2.94
  21  -1  -2   13.85    2.67
  21   1   2   12.56    2.74
  21   3  -2    4.25    3.21
  21  -3   2    6.99    4.95
  21  -3  -2    3.23    4.39
  21   0   3   11.93    3.48
  21   0  -3   13.08    3.01
  21   2  -3  106.57    5.74
  21  -2   3  122.24    8.22
  21  -2  -3  119.25    7.47
  21   4  -3    9.47    5.34
  21  -4   3   14.99    6.27
  21  -4  -3   31.78    6.46
  21  -1   4   11.24    3.99
  21   1  -4   12.62    2.07
  21   1   4   16.67    3.88
  21   3  -4    2.52    3.77
  21  -3   4    3.36    4.80
  21  -3  -4    0.83    4.36
  21   0   5   78.96    7.72
  21   2  -5   80.93    5.96
  21  -2   5   86.31    8.09
  21   2   5   76.68    7.76
  21  -4   5    6.09    6.35
  21   4  -5    3.17    7.01
  21  -1   6    2.49    4.84
  21   1  -6   -0.94    3.61
  21   1   6    3.66    4.44
  21   3  -6    0.73    5.11
  21  -3   6    2.60    5.57
  21   3   6    4.57    5.71
  21   0   7  102.38    9.45
  21  -2   7   24.46    6.33
  21   2  -7   22.95    4.85
  21   2   7   30.25    6.03
  21  -1   8   10.72    5.97
  21   1  -8   12.01    5.47
  21   1   8   15.16    6.12
  21  -3   8   -3.58    6.41
  21   3   8   10.35    7.21
  21   0   9   87.59    9.10
  21   2  -9    9.22   11.04
  21  -2   9    7.19    7.32
  21   2   9    4.18    6.79
  21   1 -10    7.70    7.94
  21  -1  10    7.53    7.47
  21   1  10   -2.90    7.32
  22   0   0    3.07    2.43
  22  -2   0   34.52    4.79
  22   4   0  162.32   11.45
  22  -4   0  189.97   13.03
  22  -1   1   33.35    3.85
  22  -1  -1   31.76    3.51
  22   1   1   22.85    3.47
  22   3  -1    4.00    3.29
  22  -3   1    0.13    4.98
  22  -3  -1    3.66    4.55
  22   0   2   47.90    4.83
  22   0  -2   43.72    4.33
  22   2  -2   38.95    3.14
  22  -2   2   42.81    5.20
  22  -2  -2   49.02    4.89
  22  -4   2   52.37    7.96
  22   4  -2   46.12    6.18
  22   4   2   43.88    7.39
  22  -4  -2   54.99    7.70
  22  -1   3   32.01    4.18
  22   1  -3   16.22    1.43
  22  -1  -3   29.24    3.28
  22   1   3   27.45    4.07
  22  -3   3    2.23    5.10
  22   3  -3   -5.20    3.55
  22  -3  -3   12.76    4.96
  22   0   4   39.46    4.92
  22   2  -4   72.56    5.35
  22  -2   4   99.13    8.28
  22  -2  -4   91.76    7.15
  22   2   4   94.12    7.67
  22  -1   5    3.73    4.34
  22   1  -5    3.30    2.87
  22   1   5    1.23    4.35
  22  -3   5   -0.97    5.92
  22   3  -5   -3.20    4.66
  22   3   5    3.59    5.56
  22   0   6   86.12    8.83
  22  -2   6   47.20    6.85
  22   2  -6   37.53    4.81
  22   2   6   48.40    6.22
  22  -1   7   -2.08    5.51
  22   1  -7    4.08    4.95
  22   1   7   25.11    6.05
  22   0   8   98.84    9.45
  22  -2   8   11.11    6.70
  22   2  -8    5.90    5.75
  22   2   8    9.38    6.59
  22  -1   9   -6.97    6.94
  22   1  -9   11.17    7.31
  22   1   9    2.78    7.28
  23  -1   0   -1.70    2.90
  23   1   0   -0.04    3.27
  23   3   0    0.58    3.93
  23  -3   0   -7.11    5.11
  23   0   1   30.00    3.24
  23   2  -1   24.49    2.58
  23  -2   1   31.23    4.81
  23  -2  -1   27.53    4.62
  23  -1   2   64.52    5.92
  23   1   2   53.71    5.28
  23  -1  -2   52.48    4.86
  23   3  -2   -0.12    3.53
  23  -3   2   -2.73    5.57
  23  -3  -2    2.01    4.99
  23   0   3   59.38    5.94
  23   2  -3   29.43    2.82
  23  -2   3   30.15    5.22
  23  -2  -3   36.05    4.70
  23   2   3   45.32    4.74
  23  -1   4    5.12    4.17
  23   1   4   10.02    4.38
  23   0   5   30.32    5.43
  23  -2   5   72.04    7.44
  23   2  -5   54.32    5.55
  23   2   5   57.64    6.37
  23   1  -6    2.30    4.17
  23  -1   6    0.73    5.44
  23   1   6    5.09    5.53
  23   0   7   50.61    7.39
  24   0   0   50.58    4.61
  24  -2   0   28.98    4.97
  24   1  -1    4.45    1.74
  24  -1   1    2.25    3.37
  24   1   1   12.75    3.43
  24  -1  -1    7.45    3.10
  24   0   2   40.15    4.20
  24  -2   2   34.16    5.37
  24   2  -2   21.18    2.32
  24   2   2   27.09    4.00
  24  -2  -2   30.74    4.76
  24  -1   3   15.98    4.35
  24  -1  -3   14.91    3.31
  24   1   3   23.22    4.38
  24   0   4   34.43    5.25
  24   1  -5   -6.81    3.11
  24  -1   5    6.31    4.96
  24   1   5    3.93    5.17
  25   1   0    5.16    3.77
  25   1   0    4.30    3.77
  25  -1   0    7.38    3.44
  25   0   1   58.03    5.40
  25   0  -1   72.21    5.18
   0   0   0    0.00    0.00
;
_shelx_hkl_checksum              1706

_shelx_fab_file                  
;
    0    2    0    -48.33      0.00
    0    4    0      9.68      0.00
    0    6    0     -6.93      0.00
    0    8    0      1.35      0.00
    0    3    1     10.44      0.00
    0    5    1     -5.06      0.00
    0    7    1     -0.88      0.00
    0    2    2     16.01      0.00
    0    4    2     -6.74      0.00
    0    6    2      1.87      0.00
    0    8    2     -4.16      0.00
    0    1    3     -9.90      0.00
    0    3    3     -5.77      0.00
    0    5    3      0.89      0.00
    0    7    3     -5.80      0.00
    0    0    4    -11.71      0.00
    0    2    4     -5.51      0.00
    0    4    4      1.20      0.00
    0    6    4     -1.73      0.00
    0    8    4      1.76      0.00
    0    1    5    -16.96      0.00
    0    3    5      2.30      0.00
    0    5    5     -3.73      0.00
    0    7    5    -11.09      0.00
    0    0    6      6.74      0.00
    0    2    6      3.81      0.00
    0    4    6     -3.46      0.00
    0    6    6      0.00      0.00
    0    1    7      1.57      0.00
    0    3    7     -1.44      0.00
    0    5    7      4.62      0.00
    0    7    7      1.75      0.00
    0    0    8    -12.75      0.00
    0    2    8      1.47      0.00
    0    4    8     -1.32      0.00
    0    6    8      3.26      0.00
    0    1    9     -0.18      0.00
    0    3    9     -0.84      0.00
    0    5    9      0.06      0.00
    0    7    9     -2.48      0.00
    0    0   10      3.11      0.00
    0    2   10      1.86      0.00
    0    4   10      0.95      0.00
    0    6   10     -0.77      0.00
    0    1   11      2.81      0.00
    0    3   11     -3.02      0.00
    0    5   11      2.31      0.00
    0    0   12     -0.52      0.00
    0    2   12     -2.31      0.00
    0    4   12      1.30      0.00
    0    6   12     -2.59      0.00
    0    1   13     -4.36      0.00
    0    3   13      6.01      0.00
    0    5   13     -2.27      0.00
    0    0   14      1.73      0.00
    0    2   14     -1.38      0.00
    0    4   14      3.79      0.00
    0    1   15      2.12      0.00
    0    3   15     -0.90      0.00
    0    5   15      5.67      0.00
    0    0   16      0.51      0.00
    0    2   16     -0.51      0.00
    0    4   16     -1.08      0.00
    0    1   17      1.71      0.00
    0    3   17     -3.81      0.00
    0    0   18     -0.57      0.00
    0    2   18     -1.55      0.00
    1    2    1     16.86      0.00
    1    4    1     -1.17      0.00
    1    6    1      1.39      0.00
    1    8    1      1.11      0.00
    1    1    2    -25.70      0.00
    1    3    2     -3.61      0.00
    1    5    2      1.74      0.00
    1    7    2     -1.77      0.00
    1    0    3     82.79      0.00
    1    2    3    -11.25      0.00
    1    4    3      1.90      0.00
    1    6    3      1.45      0.00
    1    8    3     -1.24      0.00
    1    1    4     15.00      0.00
    1    3    4      2.31      0.00
    1    5    4      0.41      0.00
    1    7    4      9.03      0.00
    1    0    5    -22.92      0.00
    1    2    5      6.28      0.00
    1    4    5      1.10      0.00
    1    6    5     -1.77      0.00
    1    8    5      3.30      0.00
    1    1    6      1.83      0.00
    1    3    6     -2.13      0.00
    1    5    6     -0.52      0.00
    1    7    6      4.83      0.00
    1    0    7     11.29      0.00
    1    2    7     -7.14      0.00
    1    4    7      1.48      0.00
    1    6    7      0.28      0.00
    1    1    8      1.95      0.00
    1    3    8      2.91      0.00
    1    5    8     -0.71      0.00
    1    7    8     -2.84      0.00
    1    0    9      0.35      0.00
    1    2    9      0.08      0.00
    1    4    9      0.15      0.00
    1    6    9     -3.07      0.00
    1    1   10     -2.88      0.00
    1    3   10     -0.68      0.00
    1    5   10     -1.48      0.00
    1    7   10      5.55      0.00
    1    0   11      0.64      0.00
    1    2   11      0.14      0.00
    1    4   11      0.38      0.00
    1    6   11      2.15      0.00
    1    1   12      0.94      0.00
    1    3   12      0.46      0.00
    1    5   12      1.32      0.00
    1    0   13     -0.79      0.00
    1    2   13      1.70      0.00
    1    4   13     -5.04      0.00
    1    6   13     -0.50      0.00
    1    1   14      1.41      0.00
    1    3   14     -3.01      0.00
    1    5   14     -1.94      0.00
    1    0   15      0.61      0.00
    1    2   15      0.14      0.00
    1    4   15      2.72      0.00
    1    1   16     -0.66      0.00
    1    3   16      2.03      0.00
    1    0   17     -1.00      0.00
    1    2   17      1.11      0.00
    1    1   18     -1.54      0.00
    2    2    0    -17.61      0.00
    2    4    0      0.98      0.00
    2    6    0     -3.04      0.00
    2    8    0      2.23      0.00
    2    1    1     56.90      0.00
    2    3    1      0.75      0.00
    2    5    1     -0.28      0.00
    2    7    1      5.35      0.00
    2    0    2    -75.77      0.00
    2    2    2      7.00      0.00
    2    4    2     -1.43      0.00
    2    6    2      1.57      0.00
    2    8    2     -0.70      0.00
    2    1    3      6.93      0.00
    2    3    3      1.28      0.00
    2    5    3      2.39      0.00
    2    7    3      4.02      0.00
    2    0    4     -6.04      0.00
    2    2    4     -2.62      0.00
    2    4    4      1.13      0.00
    2    6    4      0.75      0.00
    2    8    4      4.36      0.00
    2    1    5     -1.82      0.00
    2    3    5      0.95      0.00
    2    5    5     -0.92      0.00
    2    7    5     -8.26      0.00
    2    0    6     12.48      0.00
    2    2    6      2.72      0.00
    2    4    6      0.38      0.00
    2    6    6     -1.23      0.00
    2    1    7      3.06      0.00
    2    3    7     -0.54      0.00
    2    5    7      0.74      0.00
    2    7    7      1.02      0.00
    2    0    8     -9.20      0.00
    2    2    8      1.32      0.00
    2    4    8     -1.43      0.00
    2    6    8      3.55      0.00
    2    1    9     -1.63      0.00
    2    3    9      0.62      0.00
    2    5    9     -2.47      0.00
    2    7    9      0.81      0.00
    2    0   10      2.10      0.00
    2    2   10      1.36      0.00
    2    4   10      0.69      0.00
    2    6   10      0.25      0.00
    2    1   11      1.02      0.00
    2    3   11     -0.36      0.00
    2    5   11      0.42      0.00
    2    0   12     -3.26      0.00
    2    2   12     -0.16      0.00
    2    4   12      0.24      0.00
    2    6   12     -0.03      0.00
    2    1   13     -2.47      0.00
    2    3   13      2.41      0.00
    2    5   13     -1.48      0.00
    2    0   14      0.96      0.00
    2    2   14     -2.15      0.00
    2    4   14      2.37      0.00
    2    1   15      1.16      0.00
    2    3   15     -2.57      0.00
    2    5   15      4.39      0.00
    2    0   16     -0.39      0.00
    2    2   16      0.01      0.00
    2    4   16     -3.57      0.00
    2    1   17     -0.95      0.00
    2    3   17     -2.19      0.00
    2    0   18     -1.89      0.00
    2    2   18      2.74      0.00
    3    0    1      5.93      0.00
    3    2    1     -2.20      0.00
    3    4    1      1.89      0.00
    3    6    1     -0.75      0.00
    3    8    1     -0.90      0.00
    3    1    2    -50.49      0.00
    3    3    2      2.67      0.00
    3    5    2     -1.99      0.00
    3    7    2    -11.82      0.00
    3    0    3     48.51      0.00
    3    2    3     -0.30      0.00
    3    4    3     -1.75      0.00
    3    6    3     -0.54      0.00
    3    8    3     -2.49      0.00
    3    1    4      1.14      0.00
    3    3    4     -2.58      0.00
    3    5    4     -2.81      0.00
    3    7    4      3.59      0.00
    3    0    5    -16.48      0.00
    3    2    5      1.94      0.00
    3    4    5     -1.56      0.00
    3    6    5      0.06      0.00
    3    8    5     -4.19      0.00
    3    1    6     -9.80      0.00
    3    3    6      0.87      0.00
    3    5    6      1.22      0.00
    3    7    6      1.28      0.00
    3    0    7      3.04      0.00
    3    2    7     -2.66      0.00
    3    4    7     -1.03      0.00
    3    6    7      0.20      0.00
    3    1    8      5.25      0.00
    3    3    8     -0.19      0.00
    3    5    8      2.98      0.00
    3    7    8     -3.05      0.00
    3    0    9     -1.31      0.00
    3    2    9      0.42      0.00
    3    4    9      1.05      0.00
    3    6    9     -1.92      0.00
    3    1   10     -1.64      0.00
    3    3   10     -3.04      0.00
    3    5   10      0.05      0.00
    3    7   10     -1.01      0.00
    3    0   11      2.08      0.00
    3    2   11     -0.46      0.00
    3    4   11     -0.22      0.00
    3    6   11     -0.69      0.00
    3    1   12      0.46      0.00
    3    3   12     -1.04      0.00
    3    5   12      1.78      0.00
    3    0   13      1.14      0.00
    3    2   13     -0.04      0.00
    3    4   13     -1.78      0.00
    3    6   13     -1.07      0.00
    3    1   14      0.52      0.00
    3    3   14      3.21      0.00
    3    5   14     -1.81      0.00
    3    0   15      0.97      0.00
    3    2   15      1.27      0.00
    3    4   15      2.02      0.00
    3    1   16      0.97      0.00
    3    3   16     -0.40      0.00
    3    0   17      1.14      0.00
    3    2   17     -1.30      0.00
    3    1   18      3.58      0.00
    4    2    0     12.14      0.00
    4    4    0     -7.20      0.00
    4    6    0      1.73      0.00
    4    8    0     -0.83      0.00
    4    1    1     55.40      0.00
    4    3    1    -11.48      0.00
    4    5    1      2.61      0.00
    4    7    1      4.44      0.00
    4    0    2    -32.91      0.00
    4    2    2     -4.17      0.00
    4    4    2      3.67      0.00
    4    6    2     -0.43      0.00
    4    8    2      0.60      0.00
    4    1    3     -2.56      0.00
    4    3    3      3.29      0.00
    4    5    3      0.98      0.00
    4    7    3      4.08      0.00
    4    0    4     -6.21      0.00
    4    2    4      2.74      0.00
    4    4    4     -1.19      0.00
    4    6    4      0.74      0.00
    4    8    4      4.82      0.00
    4    1    5      8.57      0.00
    4    3    5     -3.90      0.00
    4    5    5      0.55      0.00
    4    7    5     -2.75      0.00
    4    0    6      7.71      0.00
    4    2    6     -3.86      0.00
    4    4    6      3.52      0.00
    4    6    6     -3.22      0.00
    4    1    7      0.10      0.00
    4    3    7      2.09      0.00
    4    5    7     -1.68      0.00
    4    7    7      1.92      0.00
    4    0    8     -4.16      0.00
    4    2    8      0.05      0.00
    4    4    8     -1.44      0.00
    4    6    8      1.96      0.00
    4    1    9     -1.99      0.00
    4    3    9      1.26      0.00
    4    5    9     -1.00      0.00
    4    7    9      5.29      0.00
    4    0   10      2.62      0.00
    4    2   10      0.33      0.00
    4    4   10      0.77      0.00
    4    6   10     -0.48      0.00
    4    1   11      1.22      0.00
    4    3   11      2.52      0.00
    4    5   11      0.99      0.00
    4    0   12     -1.81      0.00
    4    2   12      1.25      0.00
    4    4   12      0.19      0.00
    4    6   12      1.15      0.00
    4    1   13     -0.23      0.00
    4    3   13     -0.15      0.00
    4    5   13     -1.50      0.00
    4    0   14      1.53      0.00
    4    2   14     -2.32      0.00
    4    4   14      1.27      0.00
    4    1   15     -1.35      0.00
    4    3   15     -3.57      0.00
    4    0   16     -2.84      0.00
    4    2   16     -0.12      0.00
    4    4   16     -1.41      0.00
    4    1   17      0.05      0.00
    4    3   17      1.71      0.00
    4    0   18     -3.52      0.00
    4    2   18      4.69      0.00
    5    2    1     -1.54      0.00
    5    4    1      1.13      0.00
    5    6    1      0.08      0.00
    5    8    1     -0.10      0.00
    5    1    2    -11.80      0.00
    5    3    2      6.91      0.00
    5    5    2      0.90      0.00
    5    7    2     -2.85      0.00
    5    0    3      2.49      0.00
    5    2    3      1.23      0.00
    5    4    3     -0.30      0.00
    5    6    3      1.24      0.00
    5    8    3      0.46      0.00
    5    1    4     11.39      0.00
    5    3    4     -0.70      0.00
    5    5    4     -0.35      0.00
    5    7    4      2.78      0.00
    5    0    5      4.95      0.00
    5    2    5      1.54      0.00
    5    4    5      0.19      0.00
    5    6    5      0.78      0.00
    5    1    6     -8.99      0.00
    5    3    6      1.86      0.00
    5    5    6      0.18      0.00
    5    7    6     -3.16      0.00
    5    0    7      1.97      0.00
    5    2    7      1.21      0.00
    5    4    7     -0.81      0.00
    5    6    7      0.96      0.00
    5    1    8      8.66      0.00
    5    3    8     -1.77      0.00
    5    5    8      0.79      0.00
    5    7    8     -2.60      0.00
    5    0    9     -2.91      0.00
    5    2    9     -0.85      0.00
    5    4    9      0.97      0.00
    5    6    9      0.56      0.00
    5    1   10     -4.71      0.00
    5    3   10     -0.57      0.00
    5    5   10     -4.13      0.00
    5    0   11     -0.97      0.00
    5    2   11      0.84      0.00
    5    4   11     -2.12      0.00
    5    6   11     -0.23      0.00
    5    1   12      0.42      0.00
    5    3   12     -2.67      0.00
    5    5   12      1.65      0.00
    5    0   13     -0.03      0.00
    5    2   13     -0.88      0.00
    5    4   13      0.65      0.00
    5    1   14      0.15      0.00
    5    3   14      5.40      0.00
    5    5   14      0.77      0.00
    5    0   15     -0.79      0.00
    5    2   15      1.67      0.00
    5    4   15     -1.63      0.00
    5    1   16      1.84      0.00
    5    3   16     -2.82      0.00
    5    0   17      4.42      0.00
    5    2   17     -0.28      0.00
    5    1   18     -1.34      0.00
    6    2    0     -1.74      0.00
    6    4    0     -1.86      0.00
    6    6    0     -1.89      0.00
    6    8    0      2.65      0.00
    6    1    1     12.52      0.00
    6    3    1     -5.64      0.00
    6    5    1     -2.32      0.00
    6    7    1      0.29      0.00
    6    0    2     14.69      0.00
    6    2    2     -5.12      0.00
    6    4    2      2.03      0.00
    6    6    2     -1.37      0.00
    6    8    2     -0.62      0.00
    6    1    3    -20.34      0.00
    6    3    3      1.49      0.00
    6    5    3     -1.42      0.00
    6    7    3     -0.72      0.00
    6    0    4     -5.20      0.00
    6    2    4      2.33      0.00
    6    4    4     -2.27      0.00
    6    6    4      0.36      0.00
    6    1    5      1.11      0.00
    6    3    5     -0.90      0.00
    6    5    5     -0.48      0.00
    6    7    5      3.09      0.00
    6    0    6     -2.33      0.00
    6    2    6     -0.68      0.00
    6    4    6     -1.01      0.00
    6    6    6     -0.39      0.00
    6    1    7     -0.93      0.00
    6    3    7      0.65      0.00
    6    5    7      1.38      0.00
    6    7    7     -0.75      0.00
    6    0    8     -0.08      0.00
    6    2    8      1.21      0.00
    6    4    8      0.02      0.00
    6    6    8     -0.26      0.00
    6    1    9     -0.44      0.00
    6    3    9     -1.21      0.00
    6    5    9      1.86      0.00
    6    7    9      2.26      0.00
    6    0   10      1.05      0.00
    6    2   10      0.86      0.00
    6    4   10      0.81      0.00
    6    6   10     -0.64      0.00
    6    1   11      0.17      0.00
    6    3   11     -0.13      0.00
    6    5   11      2.80      0.00
    6    0   12      0.59      0.00
    6    2   12      0.72      0.00
    6    4   12      0.83      0.00
    6    6   12      0.70      0.00
    6    1   13      1.15      0.00
    6    3   13     -0.34      0.00
    6    5   13     -3.27      0.00
    6    0   14      1.82      0.00
    6    2   14     -1.96      0.00
    6    4   14     -0.78      0.00
    6    1   15     -2.54      0.00
    6    3   15     -2.88      0.00
    6    0   16     -1.58      0.00
    6    2   16     -0.33      0.00
    6    4   16      1.37      0.00
    6    1   17      2.93      0.00
    6    3   17      1.98      0.00
    6    0   18     -2.51      0.00
    7    2    1      5.92      0.00
    7    4    1     -1.21      0.00
    7    6    1      1.46      0.00
    7    8    1     -4.01      0.00
    7    1    2      6.20      0.00
    7    3    2     -0.04      0.00
    7    5    2      2.54      0.00
    7    7    2     -0.77      0.00
    7    0    3     -7.54      0.00
    7    2    3      0.69      0.00
    7    4    3     -0.01      0.00
    7    6    3      0.70      0.00
    7    1    4      8.86      0.00
    7    3    4     -5.07      0.00
    7    5    4      1.02      0.00
    7    7    4     -2.19      0.00
    7    0    5      3.87      0.00
    7    2    5     -1.25      0.00
    7    4    5      2.19      0.00
    7    6    5     -2.83      0.00
    7    1    6     -6.70      0.00
    7    3    6      1.20      0.00
    7    5    6     -1.76      0.00
    7    7    6     -0.73      0.00
    7    0    7      3.30      0.00
    7    2    7     -4.76      0.00
    7    4    7      0.85      0.00
    7    6    7      0.29      0.00
    7    1    8      5.12      0.00
    7    3    8      1.50      0.00
    7    5    8      1.13      0.00
    7    7    8      1.94      0.00
    7    0    9     -3.31      0.00
    7    2    9     -0.55      0.00
    7    4    9     -0.44      0.00
    7    6    9      1.27      0.00
    7    1   10     -2.26      0.00
    7    3   10      2.25      0.00
    7    5   10     -3.89      0.00
    7    0   11      0.86      0.00
    7    2   11     -0.17      0.00
    7    4   11     -1.23      0.00
    7    6   11     -2.41      0.00
    7    1   12      2.36      0.00
    7    3   12     -0.33      0.00
    7    5   12      0.92      0.00
    7    0   13      1.60      0.00
    7    2   13     -0.18      0.00
    7    4   13      1.75      0.00
    7    1   14     -2.83      0.00
    7    3   14      2.83      0.00
    7    5   14      3.84      0.00
    7    0   15     -2.89      0.00
    7    2   15      0.21      0.00
    7    4   15     -0.21      0.00
    7    1   16      2.80      0.00
    7    3   16     -1.61      0.00
    7    0   17      2.60      0.00
    7    2   17      0.07      0.00
    7    1   18     -3.21      0.00
    8    2    0     -6.88      0.00
    8    4    0      1.56      0.00
    8    6    0     -1.47      0.00
    8    1    1      0.35      0.00
    8    3    1      3.64      0.00
    8    5    1     -3.50      0.00
    8    7    1      0.51      0.00
    8    0    2     -8.35      0.00
    8    2    2      1.21      0.00
    8    4    2     -0.15      0.00
    8    6    2      1.30      0.00
    8    1    3     -0.64      0.00
    8    3    3      2.36      0.00
    8    5    3      1.15      0.00
    8    7    3      0.66      0.00
    8    0    4      6.89      0.00
    8    2    4     -2.93      0.00
    8    4    4      1.29      0.00
    8    6    4      0.39      0.00
    8    1    5     -0.02      0.00
    8    3    5      3.09      0.00
    8    5    5     -0.50      0.00
    8    7    5      1.04      0.00
    8    0    6     -4.04      0.00
    8    2    6      6.81      0.00
    8    4    6     -2.74      0.00
    8    6    6      1.67      0.00
    8    1    7      3.69      0.00
    8    3    7     -2.60      0.00
    8    5    7     -0.49      0.00
    8    7    7     -3.03      0.00
    8    0    8      1.45      0.00
    8    2    8     -0.44      0.00
    8    4    8      1.21      0.00
    8    6    8     -0.89      0.00
    8    1    9     -0.48      0.00
    8    3    9     -1.05      0.00
    8    5    9     -0.40      0.00
    8    0   10     -1.66      0.00
    8    2   10      0.59      0.00
    8    4   10     -0.35      0.00
    8    6   10     -0.19      0.00
    8    1   11     -3.75      0.00
    8    3   11     -2.26      0.00
    8    5   11      1.64      0.00
    8    0   12      0.32      0.00
    8    2   12      0.83      0.00
    8    4   12      0.31      0.00
    8    1   13      1.95      0.00
    8    3   13      2.11      0.00
    8    5   13     -1.90      0.00
    8    0   14     -1.95      0.00
    8    2   14     -0.55      0.00
    8    4   14     -1.79      0.00
    8    1   15      2.09      0.00
    8    3   15     -0.37      0.00
    8    0   16      3.15      0.00
    8    2   16      0.65      0.00
    8    1   17     -1.06      0.00
    9    2    1     -1.89      0.00
    9    4    1      0.33      0.00
    9    6    1     -2.04      0.00
    9    1    2     -2.22      0.00
    9    3    2     -0.97      0.00
    9    5    2     -0.03      0.00
    9    7    2      2.30      0.00
    9    0    3     -3.00      0.00
    9    2    3      0.20      0.00
    9    4    3     -0.39      0.00
    9    6    3      0.81      0.00
    9    1    4     -0.79      0.00
    9    3    4     -1.52      0.00
    9    5    4     -0.56      0.00
    9    7    4      1.63      0.00
    9    0    5     -3.11      0.00
    9    2    5      1.81      0.00
    9    4    5     -0.65      0.00
    9    6    5     -0.76      0.00
    9    1    6     -6.24      0.00
    9    3    6      0.74      0.00
    9    5    6      0.05      0.00
    9    7    6      1.98      0.00
    9    0    7      7.15      0.00
    9    2    7     -3.15      0.00
    9    4    7      0.45      0.00
    9    6    7      0.00      0.00
    9    1    8      2.32      0.00
    9    3    8     -0.05      0.00
    9    5    8      2.38      0.00
    9    7    8      0.08      0.00
    9    0    9     -4.63      0.00
    9    2    9      3.05      0.00
    9    4    9     -0.53      0.00
    9    6    9      3.45      0.00
    9    1   10     -0.61      0.00
    9    3   10      0.38      0.00
    9    5   10     -1.30      0.00
    9    0   11      0.90      0.00
    9    2   11     -1.23      0.00
    9    4   11      0.76      0.00
    9    6   11     -3.82      0.00
    9    1   12      1.92      0.00
    9    3   12     -1.40      0.00
    9    5   12     -1.07      0.00
    9    0   13      1.86      0.00
    9    2   13      0.94      0.00
    9    4   13     -0.08      0.00
    9    1   14     -4.20      0.00
    9    3   14     -3.25      0.00
    9    0   15     -0.20      0.00
    9    2   15     -2.70      0.00
    9    4   15     -0.90      0.00
    9    1   16     -1.71      0.00
    9    3   16      0.57      0.00
    9    0   17     -1.14      0.00
    9    2   17      1.84      0.00
   10    2    0      2.61      0.00
   10    4    0     -0.51      0.00
   10    6    0      2.02      0.00
   10    1    1     -2.42      0.00
   10    3    1      2.13      0.00
   10    5    1     -1.55      0.00
   10    7    1     -4.05      0.00
   10    2    2      5.75      0.00
   10    4    2     -1.96      0.00
   10    6    2      0.44      0.00
   10    1    3      1.66      0.00
   10    3    3     -3.63      0.00
   10    5    3      1.36      0.00
   10    7    3     -1.99      0.00
   10    0    4      7.60      0.00
   10    2    4     -5.65      0.00
   10    4    4      1.63      0.00
   10    6    4     -1.62      0.00
   10    1    5      2.27      0.00
   10    3    5     -1.61      0.00
   10    5    5      0.86      0.00
   10    7    5     -6.05      0.00
   10    0    6     -5.56      0.00
   10    2    6     -0.18      0.00
   10    4    6      0.03      0.00
   10    6    6     -0.39      0.00
   10    1    7     -0.11      0.00
   10    3    7      2.87      0.00
   10    5    7     -0.80      0.00
   10    7    7      3.32      0.00
   10    0    8      1.34      0.00
   10    2    8     -2.56      0.00
   10    4    8     -0.01      0.00
   10    6    8     -1.16      0.00
   10    1    9      1.91      0.00
   10    3    9      1.70      0.00
   10    5    9      1.11      0.00
   10    0   10      0.48      0.00
   10    2   10     -0.34      0.00
   10    4   10     -0.28      0.00
   10    6   10     -2.70      0.00
   10    1   11     -0.01      0.00
   10    3   11     -0.25      0.00
   10    5   11     -0.36      0.00
   10    0   12      2.20      0.00
   10    2   12      0.25      0.00
   10    4   12      0.23      0.00
   10    1   13     -0.60      0.00
   10    3   13      5.92      0.00
   10    5   13      1.20      0.00
   10    0   14     -4.57      0.00
   10    2   14      0.16      0.00
   10    4   14      1.33      0.00
   10    1   15      6.38      0.00
   10    3   15      0.13      0.00
   10    0   16      3.31      0.00
   10    2   16     -0.14      0.00
   10    1   17     -0.92      0.00
   11    2    1     -3.61      0.00
   11    4    1      0.92      0.00
   11    6    1      0.40      0.00
   11    1    2      5.50      0.00
   11    3    2      1.39      0.00
   11    5    2      0.74      0.00
   11    7    2      1.94      0.00
   11    0    3     -3.31      0.00
   11    2    3     -0.97      0.00
   11    4    3      1.12      0.00
   11    6    3      1.60      0.00
   11    1    4     -1.75      0.00
   11    3    4      4.90      0.00
   11    5    4     -1.38      0.00
   11    7    4      3.62      0.00
   11    0    5     -2.35      0.00
   11    2    5      6.21      0.00
   11    4    5     -0.98      0.00
   11    6    5      0.40      0.00
   11    1    6     -2.05      0.00
   11    3    6     -2.57      0.00
   11    5    6     -1.30      0.00
   11    7    6      1.59      0.00
   11    0    7      5.53      0.00
   11    2    7     -0.86      0.00
   11    4    7      0.45      0.00
   11    6    7     -0.31      0.00
   11    1    8      2.95      0.00
   11    3    8     -2.82      0.00
   11    5    8     -2.33      0.00
   11    0    9     -5.77      0.00
   11    2    9      1.60      0.00
   11    4    9     -0.22      0.00
   11    6    9      3.43      0.00
   11    1   10     -4.07      0.00
   11    3   10     -0.40      0.00
   11    5   10      0.87      0.00
   11    0   11      0.48      0.00
   11    2   11     -1.32      0.00
   11    4   11      0.71      0.00
   11    1   12     -0.37      0.00
   11    3   12     -3.02      0.00
   11    5   12     -0.60      0.00
   11    0   13      1.08      0.00
   11    2   13      1.89      0.00
   11    4   13     -1.30      0.00
   11    1   14      0.88      0.00
   11    3   14     -1.82      0.00
   11    0   15      2.16      0.00
   11    2   15     -1.75      0.00
   11    1   16     -6.12      0.00
   11    0   17     -0.26      0.00
   12    2    0      0.08      0.00
   12    4    0      0.52      0.00
   12    6    0     -1.37      0.00
   12    1    1     -4.07      0.00
   12    3    1      1.45      0.00
   12    5    1     -1.11      0.00
   12    7    1     -2.75      0.00
   12    0    2      1.32      0.00
   12    2    2      1.38      0.00
   12    4    2     -0.76      0.00
   12    6    2     -2.75      0.00
   12    1    3     -2.91      0.00
   12    3    3     -1.91      0.00
   12    5    3     -0.13      0.00
   12    7    3      4.62      0.00
   12    0    4      3.73      0.00
   12    2    4     -2.63      0.00
   12    4    4      0.82      0.00
   12    6    4      0.54      0.00
   12    1    5      5.05      0.00
   12    3    5     -2.07      0.00
   12    5    5      1.71      0.00
   12    7    5     -7.51      0.00
   12    0    6     -1.34      0.00
   12    2    6     -0.07      0.00
   12    4    6     -0.67      0.00
   12    6    6      0.28      0.00
   12    1    7     -4.50      0.00
   12    3    7      3.27      0.00
   12    5    7      2.96      0.00
   12    0    8      2.15      0.00
   12    2    8      1.29      0.00
   12    4    8     -0.52      0.00
   12    6    8      0.57      0.00
   12    1    9      2.68      0.00
   12    3    9      0.06      0.00
   12    5    9      0.45      0.00
   12    0   10      0.52      0.00
   12    2   10     -0.23      0.00
   12    4   10      0.21      0.00
   12    1   11      1.67      0.00
   12    3   11     -0.69      0.00
   12    5   11     -3.46      0.00
   12    0   12     -1.25      0.00
   12    2   12      0.87      0.00
   12    4   12     -0.15      0.00
   12    1   13     -3.02      0.00
   12    3   13      2.15      0.00
   12    0   14     -1.84      0.00
   12    2   14     -1.64      0.00
   12    4   14      1.71      0.00
   12    1   15      1.64      0.00
   12    3   15     -2.52      0.00
   12    0   16      0.17      0.00
   12    2   16      0.06      0.00
   13    0    1     -0.24      0.00
   13    2    1      1.93      0.00
   13    4    1     -0.72      0.00
   13    6    1      2.02      0.00
   13    1    2      4.55      0.00
   13    3    2     -1.90      0.00
   13    5    2      0.54      0.00
   13    7    2     -1.76      0.00
   13    0    3     -2.05      0.00
   13    2    3     -0.51      0.00
   13    4    3     -1.65      0.00
   13    6    3      0.60      0.00
   13    1    4     -3.74      0.00
   13    3    4      1.40      0.00
   13    5    4     -0.57      0.00
   13    0    5     -1.94      0.00
   13    2    5      0.60      0.00
   13    4    5      0.78      0.00
   13    6    5     -0.95      0.00
   13    1    6     -0.76      0.00
   13    3    6     -0.28      0.00
   13    5    6     -0.27      0.00
   13    0    7      2.40      0.00
   13    2    7     -3.70      0.00
   13    4    7      0.04      0.00
   13    6    7     -0.48      0.00
   13    1    8      1.75      0.00
   13    3    8      1.08      0.00
   13    5    8     -2.42      0.00
   13    0    9     -2.70      0.00
   13    2    9      0.99      0.00
   13    4    9      0.28      0.00
   13    6    9     -2.13      0.00
   13    1   10     -0.57      0.00
   13    3   10      1.67      0.00
   13    5   10      5.01      0.00
   13    0   11      1.90      0.00
   13    2   11     -0.62      0.00
   13    4   11      0.94      0.00
   13    1   12     -0.92      0.00
   13    3   12     -0.02      0.00
   13    0   13      1.76      0.00
   13    2   13      1.23      0.00
   13    4   13     -0.79      0.00
   13    1   14      3.81      0.00
   13    3   14      2.22      0.00
   13    0   15     -0.76      0.00
   13    2   15     -0.48      0.00
   13    1   16     -1.33      0.00
   14    0    0     -3.01      0.00
   14    2    0     -0.73      0.00
   14    4    0      0.43      0.00
   14    6    0      1.13      0.00
   14    1    1      0.07      0.00
   14    3    1      0.78      0.00
   14    5    1     -0.04      0.00
   14    0    2      1.12      0.00
   14    2    2     -1.79      0.00
   14    4    2      1.23      0.00
   14    6    2     -1.36      0.00
   14    1    3     -2.33      0.00
   14    3    3      1.56      0.00
   14    5    3      0.34      0.00
   14    0    4      1.34      0.00
   14    2    4      0.14      0.00
   14    4    4      2.10      0.00
   14    6    4     -0.13      0.00
   14    1    5      4.04      0.00
   14    3    5     -1.94      0.00
   14    5    5     -2.19      0.00
   14    0    6     -2.44      0.00
   14    2    6      2.88      0.00
   14    4    6     -1.68      0.00
   14    6    6     -0.31      0.00
   14    1    7     -1.73      0.00
   14    3    7     -1.62      0.00
   14    5    7      1.52      0.00
   14    0    8     -0.55      0.00
   14    2    8     -0.43      0.00
   14    4    8      0.12      0.00
   14    6    8      2.03      0.00
   14    1    9      1.13      0.00
   14    3    9      0.92      0.00
   14    5    9     -3.22      0.00
   14    0   10      0.28      0.00
   14    2   10     -1.88      0.00
   14    4   10     -0.82      0.00
   14    1   11      0.23      0.00
   14    3   11     -3.76      0.00
   14    5   11     -3.51      0.00
   14    0   12     -2.40      0.00
   14    2   12      0.18      0.00
   14    4   12      0.02      0.00
   14    1   13      1.05      0.00
   14    3   13     -0.59      0.00
   14    0   14      2.61      0.00
   14    2   14     -0.74      0.00
   14    1   15     -3.69      0.00
   15    0    1     -0.15      0.00
   15    2    1      0.07      0.00
   15    4    1      0.25      0.00
   15    6    1     -0.56      0.00
   15    1    2      1.94      0.00
   15    3    2      0.20      0.00
   15    5    2     -0.16      0.00
   15    0    3     -3.66      0.00
   15    2    3      0.60      0.00
   15    4    3     -2.36      0.00
   15    6    3      0.65      0.00
   15    1    4     -0.09      0.00
   15    3    4      1.01      0.00
   15    5    4      0.42      0.00
   15    0    5      2.16      0.00
   15    2    5      0.39      0.00
   15    4    5      1.56      0.00
   15    6    5      1.22      0.00
   15    1    6     -0.44      0.00
   15    3    6      1.32      0.00
   15    5    6      2.83      0.00
   15    0    7      2.73      0.00
   15    2    7     -0.29      0.00
   15    4    7     -0.16      0.00
   15    6    7      0.63      0.00
   15    1    8     -1.79      0.00
   15    3    8     -2.99      0.00
   15    5    8     -2.26      0.00
   15    0    9      0.66      0.00
   15    2    9      1.86      0.00
   15    4    9      0.85      0.00
   15    1   10     -1.19      0.00
   15    3   10      0.95      0.00
   15    5   10      4.99      0.00
   15    0   11     -1.53      0.00
   15    2   11      1.54      0.00
   15    4   11      0.58      0.00
   15    1   12     -4.54      0.00
   15    3   12      2.02      0.00
   15    0   13      1.36      0.00
   15    2   13      0.59      0.00
   15    1   14     -0.07      0.00
   15    0   15     -4.13      0.00
   16    0    0     -2.39      0.00
   16    2    0      3.82      0.00
   16    4    0     -1.30      0.00
   16    6    0      0.20      0.00
   16    1    1      2.50      0.00
   16    3    1     -1.78      0.00
   16    5    1      0.51      0.00
   16    0    2      4.73      0.00
   16    2    2     -1.13      0.00
   16    4    2      0.36      0.00
   16    6    2     -0.96      0.00
   16    1    3     -3.36      0.00
   16    3    3     -0.48      0.00
   16    5    3      0.14      0.00
   16    0    4     -0.39      0.00
   16    2    4     -1.64      0.00
   16    4    4      0.49      0.00
   16    6    4     -0.85      0.00
   16    1    5      1.13      0.00
   16    3    5     -2.07      0.00
   16    5    5     -1.43      0.00
   16    0    6     -0.26      0.00
   16    2    6     -0.59      0.00
   16    4    6     -1.61      0.00
   16    1    7     -0.23      0.00
   16    3    7      2.75      0.00
   16    5    7      3.35      0.00
   16    0    8     -1.24      0.00
   16    2    8     -0.45      0.00
   16    4    8     -1.39      0.00
   16    1    9      4.69      0.00
   16    3    9      7.09      0.00
   16    5    9     -0.86      0.00
   16    0   10      0.98      0.00
   16    2   10     -1.18      0.00
   16    4   10      0.88      0.00
   16    1   11      3.19      0.00
   16    3   11     -4.39      0.00
   16    0   12     -1.01      0.00
   16    2   12     -1.27      0.00
   16    1   13      5.83      0.00
   16    3   13     -0.61      0.00
   16    0   14      1.53      0.00
   17    0    1      2.57      0.00
   17    2    1     -1.33      0.00
   17    4    1      0.30      0.00
   17    6    1      2.36      0.00
   17    1    2     -0.86      0.00
   17    3    2      0.67      0.00
   17    5    2     -0.55      0.00
   17    0    3     -1.46      0.00
   17    2    3      0.50      0.00
   17    4    3     -0.28      0.00
   17    6    3     -0.41      0.00
   17    1    4      0.33      0.00
   17    3    4      2.08      0.00
   17    5    4     -1.73      0.00
   17    0    5     -2.74      0.00
   17    2    5      1.93      0.00
   17    4    5      0.71      0.00
   17    1    6      0.43      0.00
   17    3    6     -0.38      0.00
   17    5    6     -1.28      0.00
   17    0    7     -1.53      0.00
   17    2    7     -0.86      0.00
   17    4    7      1.89      0.00
   17    1    8     -2.92      0.00
   17    3    8     -7.12      0.00
   17    5    8     -5.65      0.00
   17    0    9      1.17      0.00
   17    2    9     -0.46      0.00
   17    4    9     -0.05      0.00
   17    1   10     -2.39      0.00
   17    3   10     -0.93      0.00
   17    0   11     -1.22      0.00
   17    2   11      1.00      0.00
   17    1   12     -3.79      0.00
   17    3   12      2.18      0.00
   17    0   13      3.80      0.00
   17    2   13     -0.62      0.00
   18    0    0     -8.10      0.00
   18    2    0      1.54      0.00
   18    4    0      0.42      0.00
   18    1    1      1.86      0.00
   18    3    1      1.37      0.00
   18    5    1      2.80      0.00
   18    0    2     -1.39      0.00
   18    2    2     -0.41      0.00
   18    4    2      0.42      0.00
   18    1    3     -0.27      0.00
   18    3    3     -0.50      0.00
   18    5    3      0.97      0.00
   18    0    4      1.69      0.00
   18    2    4     -0.17      0.00
   18    4    4      0.35      0.00
   18    1    5      1.52      0.00
   18    3    5     -2.95      0.00
   18    5    5      2.70      0.00
   18    0    6      4.99      0.00
   18    2    6      0.58      0.00
   18    4    6      0.16      0.00
   18    1    7     -0.54      0.00
   18    3    7      1.12      0.00
   18    5    7      5.10      0.00
   18    0    8     -0.02      0.00
   18    2    8      1.63      0.00
   18    4    8     -3.65      0.00
   18    1    9      2.03      0.00
   18    3    9      5.32      0.00
   18    0   10     -0.65      0.00
   18    2   10     -1.96      0.00
   18    1   11     -3.45      0.00
   18    3   11     -2.69      0.00
   18    0   12     -1.87      0.00
   18    2   12      0.70      0.00
   18    1   13      3.26      0.00
   19    0    1      3.78      0.00
   19    2    1      0.56      0.00
   19    4    1     -1.52      0.00
   19    1    2     -0.15      0.00
   19    3    2     -1.68      0.00
   19    5    2     -3.78      0.00
   19    0    3      0.45      0.00
   19    2    3     -0.67      0.00
   19    4    3      0.22      0.00
   19    1    4      0.49      0.00
   19    3    4      3.24      0.00
   19    5    4     -0.71      0.00
   19    0    5     -3.85      0.00
   19    2    5     -0.67      0.00
   19    4    5     -1.24      0.00
   19    1    6     -1.86      0.00
   19    3    6      2.61      0.00
   19    0    7     -1.21      0.00
   19    2    7     -0.86      0.00
   19    4    7      1.62      0.00
   19    1    8     -0.75      0.00
   19    3    8     -1.29      0.00
   19    0    9      0.83      0.00
   19    2    9      2.37      0.00
   19    1   10      6.48      0.00
   19    3   10      0.53      0.00
   19    0   11      0.50      0.00
   19    2   11      1.17      0.00
   19    1   12      2.98      0.00
   20    2    0     -0.32      0.00
   20    4    0      3.10      0.00
   20    1    1     -2.89      0.00
   20    3    1      3.73      0.00
   20    5    1      5.06      0.00
   20    0    2      0.29      0.00
   20    2    2     -0.38      0.00
   20    4    2      0.00      0.00
   20    1    3     -0.56      0.00
   20    3    3     -3.07      0.00
   20    0    4      0.59      0.00
   20    2    4      0.54      0.00
   20    4    4     -1.39      0.00
   20    1    5      0.43      0.00
   20    3    5     -2.79      0.00
   20    0    6      1.04      0.00
   20    2    6     -0.56      0.00
   20    4    6      2.17      0.00
   20    1    7      2.65      0.00
   20    3    7     -0.76      0.00
   20    0    8      0.40      0.00
   20    2    8     -0.31      0.00
   20    1    9     -2.45      0.00
   20    3    9      0.50      0.00
   20    0   10     -1.85      0.00
   20    2   10     -5.29      0.00
   20    1   11     -9.00      0.00
   21    0    1     -2.25      0.00
   21    2    1     -0.07      0.00
   21    4    1     -2.36      0.00
   21    1    2      0.29      0.00
   21    3    2      0.59      0.00
   21    0    3     -0.44      0.00
   21    2    3      0.51      0.00
   21    4    3      3.23      0.00
   21    1    4      2.71      0.00
   21    3    4      3.44      0.00
   21    0    5     -0.16      0.00
   21    2    5     -0.11      0.00
   21    4    5      1.27      0.00
   21    1    6     -3.06      0.00
   21    3    6     -1.79      0.00
   21    0    7     -1.44      0.00
   21    2    7      1.48      0.00
   21    1    8     -2.13      0.00
   21    3    8     -1.78      0.00
   21    0    9      1.23      0.00
   21    2    9      1.85      0.00
   21    1   10      5.78      0.00
   22    0    0     -0.30      0.00
   22    2    0      1.76      0.00
   22    4    0      3.35      0.00
   22    1    1     -1.84      0.00
   22    3    1      2.48      0.00
   22    0    2      1.63      0.00
   22    2    2     -1.24      0.00
   22    4    2     -0.98      0.00
   22    1    3      2.20      0.00
   22    3    3     -4.18      0.00
   22    0    4     -0.22      0.00
   22    2    4      1.55      0.00
   22    1    5     -3.22      0.00
   22    3    5      1.44      0.00
   22    0    6      2.05      0.00
   22    2    6     -1.74      0.00
   22    1    7      3.34      0.00
   22    0    8      1.65      0.00
   22    2    8      1.97      0.00
   22    1    9      0.14      0.00
   23    0    1      0.97      0.00
   23    2    1      0.62      0.00
   23    1    2     -2.98      0.00
   23    3    2     -0.17      0.00
   23    0    3     -0.08      0.00
   23    2    3     -1.75      0.00
   23    1    4      2.09      0.00
   23    0    5     -1.74      0.00
   23    2    5     -2.08      0.00
   23    1    6      2.33      0.00
   23    0    7     -2.83      0.00
   24    0    0     -3.88      0.00
   24    2    0      0.04      0.00
   24    1    1     -0.67      0.00
   24    0    2      1.89      0.00
   24    2    2     -1.73      0.00
   24    1    3      3.00      0.00
   24    0    4     -0.75      0.00
   24    1    5     -6.03      0.00
   25    0    1     -0.15      0.00
    2    0    0    126.68      0.00
    4    0    0     16.43      0.00
    6    0    0     34.11      0.00
    8    0    0     -6.34      0.00
   10    0    0      0.72      0.00
   12    0    0     10.32      0.00
   20    0    0      0.18      0.00
   26    0    0     -2.10      0.00
   26    2    0     -0.40      0.00
   24    4    0      0.76      0.00
   18    6    0     -2.38      0.00
   20    6    0      2.07      0.00
    8    8    0      6.93      0.00
   10    8    0      1.58      0.00
   12    8    0      2.01      0.00
    1    0    1   -106.78      0.00
    5    0    1    -15.33      0.00
    7    0    1    -10.07      0.00
    9    0    1     15.92      0.00
   11    0    1     -5.82      0.00
    0    1    1     30.33      0.00
   26    1    1     -1.64      0.00
   25    2    1      2.43      0.00
   24    3    1      2.39      0.00
   26    3    1      0.96      0.00
   23    4    1     -1.59      0.00
   25    4    1     -0.32      0.00
   22    5    1      3.54      0.00
   19    6    1      0.16      0.00
   21    6    1     -1.69      0.00
   14    7    1     -3.64      0.00
   16    7    1     -3.06      0.00
   18    7    1      1.56      0.00
    9    8    1     -1.85      0.00
   11    8    1     -0.53      0.00
   13    8    1     -2.34      0.00
    0    9    1      0.95      0.00
    2    9    1      1.27      0.00
    4    9    1      1.34      0.00
    6    9    1      0.03      0.00
    0    0    2    -61.57      0.00
   10    0    2     -6.35      0.00
   26    0    2      1.61      0.00
   25    1    2     -0.57      0.00
   26    2    2     -1.80      0.00
   25    3    2     -1.78      0.00
   24    4    2     -0.33      0.00
   21    5    2     -3.42      0.00
   23    5    2     -1.72      0.00
   18    6    2     -0.84      0.00
   20    6    2      0.71      0.00
   15    7    2      3.89      0.00
   17    7    2      0.53      0.00
    8    8    2     -1.44      0.00
   10    8    2     -2.32      0.00
   12    8    2      0.87      0.00
    1    9    2     -2.39      0.00
    3    9    2     -1.63      0.00
    5    9    2     -0.44      0.00
   25    0    3      0.43      0.00
   26    1    3      1.65      0.00
   25    2    3     -2.94      0.00
   24    3    3     -1.35      0.00
   23    4    3      3.86      0.00
   20    5    3     -0.45      0.00
   22    5    3     -2.14      0.00
   19    6    3     -0.35      0.00
   14    7    3      2.39      0.00
   16    7    3     -1.10      0.00
    7    8    3      2.89      0.00
    9    8    3      2.67      0.00
   11    8    3      1.26      0.00
   13    8    3     -0.10      0.00
    0    9    3     -0.54      0.00
    2    9    3      0.25      0.00
    4    9    3      0.14      0.00
   26    0    4     -1.53      0.00
   25    1    4      0.96      0.00
   24    2    4      5.49      0.00
   26    2    4      2.35      0.00
   23    3    4      2.38      0.00
   25    3    4      2.31      0.00
   22    4    4     -5.21      0.00
   24    4    4     -2.30      0.00
   21    5    4      3.51      0.00
   18    6    4      0.92      0.00
   20    6    4     -0.48      0.00
   13    7    4      0.48      0.00
   15    7    4      1.56      0.00
   17    7    4     -1.20      0.00
    6    8    4      0.20      0.00
    8    8    4     -1.03      0.00
   10    8    4      0.26      0.00
   12    8    4     -0.17      0.00
    1    9    4      3.27      0.00
    3    9    4     -0.06      0.00
   25    0    5     -0.63      0.00
   26    1    5     -2.93      0.00
   25    2    5     -2.46      0.00
   24    3    5      0.53      0.00
   23    4    5      2.07      0.00
   20    5    5      0.80      0.00
   22    5    5     -0.40      0.00
   17    6    5      0.07      0.00
   19    6    5     -0.90      0.00
   14    7    5     -5.94      0.00
   16    7    5     -0.77      0.00
    5    8    5     -3.49      0.00
    7    8    5      0.69      0.00
    9    8    5     -0.26      0.00
   11    8    5     -0.53      0.00
   24    0    6      2.09      0.00
   26    0    6      0.30      0.00
   25    1    6      4.37      0.00
   24    2    6      0.17      0.00
   23    3    6     -5.37      0.00
   25    3    6     -1.76      0.00
   22    4    6      1.48      0.00
   19    5    6     -2.89      0.00
   21    5    6     -1.54      0.00
   16    6    6     -0.93      0.00
   18    6    6      0.32      0.00
   13    7    6      3.66      0.00
   15    7    6      1.71      0.00
    0    8    6     -8.04      0.00
    2    8    6     -3.51      0.00
    4    8    6     -0.13      0.00
    6    8    6     -2.16      0.00
    8    8    6     -1.52      0.00
   10    8    6      0.13      0.00
   25    0    7      0.28      0.00
   24    1    7     -0.23      0.00
   26    1    7      0.60      0.00
   23    2    7      0.16      0.00
   25    2    7      0.08      0.00
   22    3    7      4.93      0.00
   24    3    7      2.39      0.00
   21    4    7     -0.42      0.00
   23    4    7     -1.12      0.00
   20    5    7      1.33      0.00
   17    6    7      0.82      0.00
   12    7    7      4.27      0.00
   14    7    7      0.92      0.00
    1    8    7      3.20      0.00
    3    8    7      2.31      0.00
    5    8    7      3.53      0.00
    7    8    7      2.33      0.00
    9    8    7      0.39      0.00
   24    0    8     -0.18      0.00
   23    1    8     -1.86      0.00
   25    1    8     -0.42      0.00
   24    2    8      1.70      0.00
   23    3    8     -2.68      0.00
   20    4    8     -3.94      0.00
   22    4    8     -2.08      0.00
   19    5    8     -2.29      0.00
   16    6    8      0.58      0.00
   18    6    8     -0.35      0.00
   11    7    8     -3.69      0.00
   13    7    8     -2.21      0.00
    0    8    8     -0.17      0.00
    2    8    8      0.74      0.00
    4    8    8      0.04      0.00
    6    8    8     -1.27      0.00
    8    8    8     -0.52      0.00
   23    0    9      3.07      0.00
   25    0    9      2.41      0.00
   24    1    9     -0.71      0.00
   23    2    9     -1.86      0.00
   22    3    9      1.03      0.00
   19    4    9      0.12      0.00
   21    4    9      1.51      0.00
   18    5    9      0.23      0.00
   20    5    9     -1.26      0.00
   15    6    9     -3.56      0.00
   17    6    9     -0.79      0.00
    8    7    9     -1.23      0.00
   10    7    9     -0.43      0.00
   12    7    9     -0.74      0.00
    1    8    9     -0.41      0.00
    3    8    9     -2.70      0.00
    5    8    9     -1.25      0.00
   22    0   10     -3.96      0.00
   24    0   10     -4.15      0.00
   23    1   10      0.39      0.00
   22    2   10     -2.66      0.00
   21    3   10      1.59      0.00
   18    4   10      3.93      0.00
   20    4   10      2.83      0.00
   17    5   10      3.07      0.00
   19    5   10      2.28      0.00
   12    6   10     -0.44      0.00
   14    6   10      3.06      0.00
   16    6   10      1.45      0.00
    5    7   10     -0.95      0.00
    7    7   10      2.51      0.00
    9    7   10      1.09      0.00
   11    7   10      1.39      0.00
    0    8   10     -0.42      0.00
    2    8   10      0.74      0.00
   21    0   11     -0.03      0.00
   23    0   11      0.55      0.00
   22    1   11     -2.15      0.00
   21    2   11      2.37      0.00
   20    3   11     -1.47      0.00
   17    4   11     -1.65      0.00
   19    4   11     -2.40      0.00
   16    5   11     -2.33      0.00
   18    5   11     -2.22      0.00
   11    6   11     -2.17      0.00
   13    6   11     -1.51      0.00
   15    6   11     -0.27      0.00
    0    7   11     -3.71      0.00
    2    7   11     -1.32      0.00
    4    7   11     -0.71      0.00
    6    7   11     -3.59      0.00
    8    7   11     -1.55      0.00
   10    7   11      0.66      0.00
   20    0   12      1.88      0.00
   22    0   12      3.98      0.00
   21    1   12      1.61      0.00
   20    2   12      0.88      0.00
   19    3   12      0.98      0.00
   16    4   12      0.54      0.00
   18    4   12      0.61      0.00
   13    5   12      0.01      0.00
   15    5   12     -0.64      0.00
    8    6   12      3.13      0.00
   10    6   12      3.78      0.00
   12    6   12      1.70      0.00
    1    7   12     -1.81      0.00
    3    7   12     -0.93      0.00
    5    7   12      0.69      0.00
    7    7   12      0.48      0.00
   19    0   13      2.66      0.00
   21    0   13     -2.80      0.00
   20    1   13      1.02      0.00
   19    2   13     -1.83      0.00
   18    3   13     -1.78      0.00
   15    4   13     -0.93      0.00
   17    4   13     -0.29      0.00
   12    5   13      2.21      0.00
   14    5   13      2.47      0.00
    5    6   13     -0.45      0.00
    7    6   13      0.25      0.00
    9    6   13      0.01      0.00
   11    6   13     -0.36      0.00
    0    7   13      2.72      0.00
    2    7   13      1.25      0.00
    4    7   13      0.06      0.00
   18    0   14     -3.73      0.00
   20    0   14     -2.49      0.00
   17    1   14     -2.13      0.00
   19    1   14     -0.72      0.00
   16    2   14      1.62      0.00
   18    2   14      2.66      0.00
   15    3   14      0.21      0.00
   17    3   14      0.80      0.00
   14    4   14      0.32      0.00
   16    4   14     -0.14      0.00
    9    5   14      3.36      0.00
   11    5   14      0.78      0.00
   13    5   14     -0.80      0.00
    0    6   14      2.76      0.00
    2    6   14      0.93      0.00
    4    6   14     -0.43      0.00
    6    6   14     -0.19      0.00
    8    6   14     -1.09      0.00
   17    0   15     -1.81      0.00
   19    0   15      2.49      0.00
   16    1   15     -3.18      0.00
   18    1   15     -1.77      0.00
   15    2   15     -1.85      0.00
   17    2   15     -1.84      0.00
   14    3   15     -0.04      0.00
   16    3   15      1.38      0.00
   11    4   15     -3.53      0.00
   13    4   15     -1.31      0.00
    4    5   15      2.10      0.00
    6    5   15     -0.03      0.00
    8    5   15     -1.96      0.00
   10    5   15     -2.09      0.00
    1    6   15     -1.31      0.00
    3    6   15      1.58      0.00
    5    6   15      1.14      0.00
   14    0   16     -0.18      0.00
   16    0   16      2.11      0.00
   15    1   16      3.27      0.00
   17    1   16      2.45      0.00
   14    2   16      1.94      0.00
   16    2   16      0.72      0.00
   11    3   16      2.12      0.00
   13    3   16      0.40      0.00
   15    3   16     -1.31      0.00
    8    4   16      0.16      0.00
   10    4   16      2.82      0.00
   12    4   16      2.11      0.00
    1    5   16     -2.34      0.00
    3    5   16     -0.69      0.00
    5    5   16     -0.79      0.00
    7    5   16     -1.83      0.00
    9    5   16     -1.10      0.00
   13    0   17      1.90      0.00
   15    0   17      1.00      0.00
   12    1   17      2.64      0.00
   14    1   17      0.98      0.00
   11    2   17      2.92      0.00
   13    2   17     -0.55      0.00
    8    3   17     -1.13      0.00
   10    3   17     -1.96      0.00
   12    3   17     -0.88      0.00
    1    4   17     -3.40      0.00
    3    4   17      1.41      0.00
    5    4   17      0.02      0.00
    7    4   17      0.68      0.00
    9    4   17      0.12      0.00
    0    5   17     -1.96      0.00
    2    5   17     -1.93      0.00
    4    5   17     -1.51      0.00
    8    0   18     -2.05      0.00
   10    0   18     -4.41      0.00
   12    0   18     -3.92      0.00
    9    1   18      3.90      0.00
   11    1   18      3.13      0.00
   13    1   18     -0.54      0.00
    6    2   18      2.19      0.00
    8    2   18      1.54      0.00
   10    2   18     -0.52      0.00
   12    2   18     -0.42      0.00
    1    3   18      3.65      0.00
    3    3   18      2.37      0.00
    5    3   18      0.16      0.00
    7    3   18      1.64      0.00
    9    3   18      2.01      0.00
    0    4   18      4.44      0.00
    2    4   18      0.90      0.00
    4    4   18     -0.79      0.00
    6    4   18     -0.12      0.00
    1    0   19     -1.00      0.00
    3    0   19      2.00      0.00
    5    0   19      0.38      0.00
    7    0   19     -2.31      0.00
    9    0   19      1.71      0.00
   11    0   19      4.31      0.00
    0    1   19      1.23      0.00
    2    1   19     -2.48      0.00
    4    1   19     -4.34      0.00
    6    1   19      0.05      0.00
    8    1   19     -1.14      0.00
   10    1   19     -3.66      0.00
    1    2   19      1.19      0.00
    3    2   19     -4.51      0.00
    5    2   19     -3.34      0.00
    7    2   19     -1.34      0.00
    9    2   19     -1.64      0.00
    0    3   19      0.68      0.00
    2    3   19     -0.77      0.00
    4    3   19     -0.41      0.00
    6    3   19      0.49      0.00
    0    0    0      0.00      0.00
# SQUEEZE RESULTS (Version = 250420)
# Note: Data are Listed for all Voids in the P1 Unit Cell
# i.e. Centre of Gravity, Solvent Accessible Volume,
# Recovered number of Electrons in the Void and
# Details about the Squeezed Material
loop_
  _platon_squeeze_void_nr
  _platon_squeeze_void_average_x
  _platon_squeeze_void_average_y
  _platon_squeeze_void_average_z
  _platon_squeeze_void_volume
  _platon_squeeze_void_count_electrons
  _platon_squeeze_void_content
   1  0.500 -0.041  0.000       514       127 ' '
   2  0.000 -0.038  0.500       514       127 ' '
# Missing Reflections Below sin(th)/lambda = 0.25
loop_
  _platon_missing_refln_index_h
  _platon_missing_refln_index_k
  _platon_missing_refln_index_l
  _platon_missing_refln_theta
    2    0    0     1.914
    4    0    0     3.831
    6    0    0     5.751
    8    0    0     7.678
   10    0    0     9.614
    1    0    1     1.602
    5    0    1     4.960
    7    0    1     6.837
    9    0    1     8.741
    0    1    1     3.153
    0    0    2     2.569
   10    0    2     9.958
_platon_squeeze_void_probe_radius                  1.20
_platon_squeeze_details
)
TITL shelxt_a.res in Imma
CELL   21.2770    7.0740   15.8540     90.00     90.00     90.00
SPGR Imma
# Solvent Accessible Volume =      1031
# Electrons Found in S.A.V. =       251
# Note: Atoms in Void are Labelled as Cxxx and Qxxx for all Others
C101 0.490 0.739 0.219 !       2.36 eA-3
C102 0.459 0.747 0.172 !       1.84 eA-3
Q103 0.241 0.246 0.453 !       1.82 eA-3
Q104 0.211 0.254 0.109 !       1.80 eA-3
C105 0.534 0.817 0.152 !       1.70 eA-3
C106 1.000 0.746 0.422 !       1.39 eA-3
C107 0.353 0.247 0.094 !       1.29 eA-3
C108 0.500 0.537 0.164 !       1.29 eA-3
C109 0.398 0.250 0.234 !       1.25 eA-3
C110 0.949 0.930 0.345 !       1.22 eA-3
C111 0.588 0.265 0.172 !       1.08 eA-3
Q112 0.261 0.246 0.125 !       0.99 eA-3
C113 0.528 0.060 0.175 !       0.91 eA-3
C114 0.457 0.757 0.094 !       0.89 eA-3
C115 0.523 0.568 0.112 !       0.86 eA-3
Q116 0.313 0.034 0.084 !       0.77 eA-3
Q117 0.663 0.169 0.036 !       0.71 eA-3
Q118 0.953 0.746 0.078 !       0.69 eA-3
Q119 0.102 0.247 0.203 !       0.69 eA-3
C120 0.568 0.091 0.185 !       0.68 eA-3
Q121 0.937 0.755 0.219 !       0.65 eA-3
Q122 0.332 0.243 0.172 !       0.64 eA-3
C123 0.500 0.586 0.052 !       0.64 eA-3
Q124 0.589 0.744 0.219 !       0.63 eA-3
Q125 0.500 0.310 0.456 !       0.63 eA-3
Q126 0.015 0.758 0.203 !       0.59 eA-3
Q127 0.528 0.738 0.359 !       0.58 eA-3
C128 0.500 0.238 0.188 !       0.56 eA-3
Q129 0.358 0.211 0.203 !       0.55 eA-3
Q130 0.177 0.939 0.481 !       0.55 eA-3
Q131 0.126 0.758 0.375 !       0.54 eA-3
C132 0.649 0.313 0.139 !       0.54 eA-3
Q133 0.031 0.241 0.250 !       0.53 eA-3
C134 0.467 0.259 0.172 !       0.53 eA-3
Q135 1.000 0.758 0.016 !       0.52 eA-3
Q136 1.000 0.856 0.129 !       0.52 eA-3
Q137 0.981 0.583 0.186 !       0.52 eA-3
Q138 0.110 0.869 0.344 !       0.51 eA-3
Q139 1.000 0.943 0.165 !       0.51 eA-3
Q140 1.000 0.505 0.247 !       0.51 eA-3
)
;
_shelx_fab_checksum              30090

