####################################################################### 
# 
# This file contains crystal structure data downloaded from the 
# Cambridge Structural Database (CSD) hosted by the Cambridge 
# Crystallographic Data Centre (CCDC).
# 
# Full information about CCDC data access policies and citation 
# guidelines are available at http://www.ccdc.cam.ac.uk/access/V1 
# 
# Audit and citation data items may have been added by the CCDC. 
# Please retain this information to preserve the provenance of 
# this file and to allow appropriate attribution of the data. 
# 
#######################################################################

data_a
_audit_block_doi                 10.5517/ccdc.csd.cc27zgg5
_database_code_depnum_ccdc_archive 'CCDC 2084857'
loop_
_citation_id
_citation_doi
_citation_year
1 10.1021/acsami.2c09290 2022
loop_
_audit_author_name
_audit_author_address
Huang
;Zhongyuan University of Technology
China
;
_audit_update_record             
;
2021-05-20 deposited with the CCDC.	2023-03-30 downloaded from the CCDC.
;
_audit_creation_date             2021-04-17
_audit_creation_method           
;
Olex2 1.2-beta
(compiled 2017.03.28 svn.r3405 for OlexSys, GUI svn.r5337)
;
_shelx_SHELXL_version_number     2018/3
_chemical_name_common            ?
_chemical_name_systematic        
;
 ? 
;
_chemical_formula_moiety         'C5 H Cu N8, 0.5(O)'
_chemical_formula_sum            'C5 H2 Cu N8 O0.50'
_chemical_formula_weight         245.69
_chemical_melting_point          ?
loop_
_atom_type_symbol
_atom_type_description
_atom_type_scat_dispersion_real
_atom_type_scat_dispersion_imag
_atom_type_scat_source
C C 0.0181 0.0091 'International Tables Vol C Tables 4.2.6.8 and 6.1.1.4'
H H 0.0000 0.0000 'International Tables Vol C Tables 4.2.6.8 and 6.1.1.4'
N N 0.0311 0.0180 'International Tables Vol C Tables 4.2.6.8 and 6.1.1.4'
O O 0.0492 0.0322 'International Tables Vol C Tables 4.2.6.8 and 6.1.1.4'
Cu Cu -1.9646 0.5888 'International Tables Vol C Tables 4.2.6.8 and 6.1.1.4'

_shelx_space_group_comment       
;
The symmetry employed for this shelxl refinement is uniquely defined
by the following loop, which should always be used as a source of
symmetry information in preference to the above space-group names.
They are only intended as comments.
;
_space_group_crystal_system      tetragonal
_space_group_IT_number           88
_space_group_name_H-M_alt        'I 41/a'
_space_group_name_Hall           '-I 4ad'
loop_
_space_group_symop_operation_xyz
'x, y, z'
'-x+1/2, -y, z+1/2'
'-y+3/4, x+1/4, z+1/4'
'y+3/4, -x+3/4, z+3/4'
'x+1/2, y+1/2, z+1/2'
'-x+1, -y+1/2, z+1'
'-y+5/4, x+3/4, z+3/4'
'y+5/4, -x+5/4, z+5/4'
'-x, -y, -z'
'x-1/2, y, -z-1/2'
'y-3/4, -x-1/4, -z-1/4'
'-y-3/4, x-3/4, -z-3/4'
'-x+1/2, -y+1/2, -z+1/2'
'x, y+1/2, -z'
'y-1/4, -x+1/4, -z+1/4'
'-y-1/4, x-1/4, -z-1/4'

_cell_length_a                   15.4768(6)
_cell_length_b                   15.4768(6)
_cell_length_c                   14.4898(12)
_cell_angle_alpha                90
_cell_angle_beta                 90
_cell_angle_gamma                90
_cell_volume                     3470.8(4)
_cell_formula_units_Z            16
_cell_measurement_reflns_used    1511
_cell_measurement_temperature    293(2)
_cell_measurement_theta_max      76.0270
_cell_measurement_theta_min      4.1230
_shelx_estimated_absorpt_T_max   ?
_shelx_estimated_absorpt_T_min   ?
_exptl_absorpt_coefficient_mu    3.438
_exptl_absorpt_correction_T_max  1.0000
_exptl_absorpt_correction_T_min  0.56965
_exptl_absorpt_correction_type   multi-scan
_exptl_absorpt_process_details   
;   
CrysAlisPro, Agilent Technologies,
Version 1.171.36.28 (release 01-02-2013 CrysAlis171 .NET)
(compiled Feb  1 2013,16:14:44)
Empirical absorption correction using spherical harmonics,
 implemented in SCALE3 ABSPACK scaling algorithm.
;
_exptl_absorpt_special_details   ?
_exptl_crystal_colour            black
_exptl_crystal_density_diffrn    1.881
_exptl_crystal_density_meas      ?
_exptl_crystal_density_method    'not measured'
_exptl_crystal_description       rodlike
_exptl_crystal_F_000             1936
_exptl_crystal_size_max          ?
_exptl_crystal_size_mid          ?
_exptl_crystal_size_min          ?
_exptl_special_details           
;
 ? 
;
_exptl_transmission_factor_max   ?
_exptl_transmission_factor_min   ?
_diffrn_reflns_av_R_equivalents  0.0258
_diffrn_reflns_av_unetI/netI     0.0289
_diffrn_reflns_Laue_measured_fraction_full 0.996
_diffrn_reflns_Laue_measured_fraction_max 0.955
_diffrn_reflns_limit_h_max       19
_diffrn_reflns_limit_h_min       -13
_diffrn_reflns_limit_k_max       14
_diffrn_reflns_limit_k_min       -19
_diffrn_reflns_limit_l_max       9
_diffrn_reflns_limit_l_min       -17
_diffrn_reflns_number            3942
_diffrn_reflns_point_group_measured_fraction_full 0.996
_diffrn_reflns_point_group_measured_fraction_max 0.955
_diffrn_reflns_theta_full        67.679
_diffrn_reflns_theta_max         77.195
_diffrn_reflns_theta_min         4.179
_diffrn_ambient_temperature      293(2)
_diffrn_detector_area_resol_mean ?
_diffrn_measured_fraction_theta_full 0.996
_diffrn_measured_fraction_theta_max 0.955
_diffrn_measurement_device_type  'multiwire proportional'
_diffrn_measurement_method       'phi and omega scans'
_diffrn_radiation_monochromator  graphite
_diffrn_radiation_type           CuK\a
_diffrn_radiation_wavelength     1.54178
_diffrn_source                   ?
_reflns_Friedel_coverage         0.000
_reflns_Friedel_fraction_full    .
_reflns_Friedel_fraction_max     .
_reflns_number_gt                1390
_reflns_number_total             1769
_reflns_special_details          
;
 Reflections were merged by SHELXL according to the crystal
 class for the calculation of statistics and refinement.
 
 _reflns_Friedel_fraction is defined as the number of unique
 Friedel pairs measured divided by the number that would be
 possible theoretically, ignoring centric projections and
 systematic absences.
;
_reflns_threshold_expression     'I > 2\s(I)'
_computing_cell_refinement       ?
_computing_data_collection       ?
_computing_data_reduction        ?
_computing_molecular_graphics    'Olex2 (Dolomanov et al., 2009)'
_computing_publication_material  'Olex2 (Dolomanov et al., 2009)'
_computing_structure_refinement  'ShelXL (Sheldrick, 2015)'
_computing_structure_solution    'SHELXS-97 (Sheldrick, 1990)'
_refine_diff_density_max         1.192
_refine_diff_density_min         -0.755
_refine_diff_density_rms         0.202
_refine_ls_extinction_coef       .
_refine_ls_extinction_method     none
_refine_ls_goodness_of_fit_ref   1.087
_refine_ls_hydrogen_treatment    constr
_refine_ls_matrix_type           full
_refine_ls_number_parameters     136
_refine_ls_number_reflns         1769
_refine_ls_number_restraints     0
_refine_ls_R_factor_all          0.0970
_refine_ls_R_factor_gt           0.0768
_refine_ls_restrained_S_all      1.087
_refine_ls_shift/su_max          0.000
_refine_ls_shift/su_mean         0.000
_refine_ls_structure_factor_coef Fsqd
_refine_ls_weighting_details     
'w=1/[\s^2^(Fo^2^)+(0.1055P)^2^+108.9924P] where P=(Fo^2^+2Fc^2^)/3'
_refine_ls_weighting_scheme      calc
_refine_ls_wR_factor_gt          0.2339
_refine_ls_wR_factor_ref         0.2529
_refine_special_details          ?
_olex2_refinement_description    
;
1. Fixed Uiso
 At 1.2 times of:
  All C(H) groups
2. Others
 Fixed Sof: O1(0.5)
3.a Aromatic/amide H refined with riding coordinates:
 C1(H1)
;
_atom_sites_solution_hydrogens   geom
_atom_sites_solution_primary     ?
_atom_sites_solution_secondary   ?
loop_
_atom_site_label
_atom_site_type_symbol
_atom_site_fract_x
_atom_site_fract_y
_atom_site_fract_z
_atom_site_U_iso_or_equiv
_atom_site_adp_type
_atom_site_occupancy
_atom_site_site_symmetry_order
_atom_site_calc_flag
_atom_site_refinement_flags_posn
_atom_site_refinement_flags_adp
_atom_site_refinement_flags_occupancy
_atom_site_disorder_assembly
_atom_site_disorder_group
Cu1 Cu 0.27013(8) 0.98128(8) 0.89161(8) 0.0280(4) Uani 1 1 d . . . . .
O1 O 0.4293(5) 0.3622(6) -0.0101(5) 0.0107(16) Uani 0.5 1 d . . P . .
N1 N 0.1798(5) 0.7514(5) 1.0038(5) 0.0336(16) Uani 1 1 d . . . . .
N2 N 0.1793(5) 0.8035(4) 1.0777(5) 0.0316(15) Uani 1 1 d . . . . .
N3 N 0.2058(4) 0.8805(4) 1.0542(4) 0.0276(14) Uani 1 1 d . . . . .
N4 N 0.2253(4) 0.8813(4) 0.9639(4) 0.0250(13) Uani 1 1 d . . . . .
N5 N 0.3666(5) 0.6893(4) 0.9697(5) 0.0326(15) Uani 1 1 d . . . . .
N6 N 0.3765(5) 0.6273(5) 1.0336(5) 0.0328(15) Uani 1 1 d . . . . .
N7 N 0.3365(5) 0.5574(5) 1.0071(4) 0.0308(15) Uani 1 1 d . . . . .
N8 N 0.2994(5) 0.5735(5) 0.9238(4) 0.0290(14) Uani 1 1 d . . . . .
C1 C 0.1957(5) 0.8200(5) 0.7660(5) 0.0257(15) Uani 1 1 d . . . . .
H1 H 0.159003 0.866611 0.776295 0.031 Uiso 1 1 calc R . . . .
C2 C 0.2286(5) 0.7740(5) 0.8401(5) 0.0250(15) Uani 1 1 d . . . . .
C3 C 0.2826(5) 0.7035(5) 0.8241(5) 0.0239(15) Uani 1 1 d . . . . .
C4 C 0.2086(5) 0.8011(5) 0.9354(5) 0.0249(15) Uani 1 1 d . . . . .
C5 C 0.3182(5) 0.6535(5) 0.9033(5) 0.0256(15) Uani 1 1 d . . . . .

loop_
_atom_site_aniso_label
_atom_site_aniso_U_11
_atom_site_aniso_U_22
_atom_site_aniso_U_33
_atom_site_aniso_U_23
_atom_site_aniso_U_13
_atom_site_aniso_U_12
Cu1 0.0325(7) 0.0322(7) 0.0193(6) 0.0015(4) 0.0029(4) 0.0001(4)
O1 0.008(4) 0.021(4) 0.003(4) -0.001(3) -0.001(3) -0.001(3)
N1 0.050(4) 0.029(3) 0.022(3) -0.003(3) 0.006(3) -0.003(3)
N2 0.046(4) 0.027(3) 0.021(3) -0.004(3) 0.005(3) -0.006(3)
N3 0.036(4) 0.028(3) 0.018(3) -0.003(3) 0.007(3) -0.002(3)
N4 0.035(3) 0.024(3) 0.016(3) 0.000(2) -0.002(3) 0.001(2)
N5 0.050(4) 0.026(3) 0.021(3) -0.001(3) -0.006(3) -0.002(3)
N6 0.043(4) 0.033(4) 0.023(3) 0.005(3) -0.010(3) -0.005(3)
N7 0.036(4) 0.037(4) 0.020(3) 0.007(3) -0.005(3) -0.005(3)
N8 0.037(4) 0.036(4) 0.014(3) -0.001(3) -0.005(3) 0.002(3)
C1 0.033(4) 0.024(3) 0.021(4) -0.001(3) 0.000(3) -0.002(3)
C2 0.033(4) 0.024(3) 0.018(3) -0.001(3) 0.004(3) -0.004(3)
C3 0.029(4) 0.024(3) 0.019(3) 0.003(3) -0.002(3) -0.001(3)
C4 0.032(4) 0.027(4) 0.016(3) 0.000(3) -0.002(3) -0.003(3)
C5 0.029(4) 0.029(4) 0.018(3) 0.000(3) 0.000(3) 0.001(3)

_geom_special_details            
;
 All esds (except the esd in the dihedral angle between two l.s. planes)
 are estimated using the full covariance matrix.  The cell esds are taken
 into account individually in the estimation of esds in distances, angles
 and torsion angles; correlations between esds in cell parameters are only
 used when they are defined by crystal symmetry.  An approximate (isotropic)
 treatment of cell esds is used for estimating esds involving l.s. planes.
;
loop_
_geom_bond_atom_site_label_1
_geom_bond_atom_site_label_2
_geom_bond_distance
_geom_bond_site_symmetry_2
_geom_bond_publ_flag
Cu1 N3 2.031(7) 7_554 ?
Cu1 N4 1.993(6) . ?
Cu1 N7 2.144(7) 14_557 ?
Cu1 N8 2.027(7) 16_667 ?
N1 N2 1.342(9) . ?
N1 C4 1.331(10) . ?
N2 N3 1.305(9) . ?
N3 N4 1.344(9) . ?
N4 C4 1.333(10) . ?
N5 N6 1.342(9) . ?
N5 C5 1.340(10) . ?
N6 N7 1.305(10) . ?
N7 N8 1.360(9) . ?
N8 C5 1.306(10) . ?
C1 C2 1.385(11) . ?
C1 C3 1.396(10) 13_566 ?
C2 C3 1.393(11) . ?
C2 C4 1.476(10) . ?
C3 C5 1.490(10) . ?

loop_
_geom_angle_atom_site_label_1
_geom_angle_atom_site_label_2
_geom_angle_atom_site_label_3
_geom_angle
_geom_angle_site_symmetry_1
_geom_angle_site_symmetry_3
_geom_angle_publ_flag
N3 Cu1 N7 99.8(3) 7_554 14_557 ?
N4 Cu1 N3 116.1(3) . 7_554 ?
N4 Cu1 N7 103.5(3) . 14_557 ?
N4 Cu1 N8 113.6(3) . 16_667 ?
N8 Cu1 N3 110.5(3) 16_667 7_554 ?
N8 Cu1 N7 112.2(3) 16_667 14_557 ?
C4 N1 N2 104.4(6) . . ?
N3 N2 N1 109.8(6) . . ?
N2 N3 Cu1 126.1(5) . 8_354 ?
N2 N3 N4 109.5(6) . . ?
N4 N3 Cu1 123.9(5) . 8_354 ?
N3 N4 Cu1 126.6(5) . . ?
C4 N4 Cu1 128.9(5) . . ?
C4 N4 N3 104.5(6) . . ?
C5 N5 N6 105.2(6) . . ?
N7 N6 N5 109.7(6) . . ?
N6 N7 Cu1 118.8(5) . 14_547 ?
N6 N7 N8 108.0(6) . . ?
N8 N7 Cu1 120.4(5) . 14_547 ?
N7 N8 Cu1 120.2(5) . 11_567 ?
C5 N8 Cu1 133.4(5) . 11_567 ?
C5 N8 N7 106.3(6) . . ?
C2 C1 C3 120.1(7) . 13_566 ?
C1 C2 C3 119.6(7) . . ?
C1 C2 C4 120.1(7) . . ?
C3 C2 C4 120.3(7) . . ?
C1 C3 C5 119.7(7) 13_566 . ?
C2 C3 C1 120.3(7) . 13_566 ?
C2 C3 C5 120.0(7) . . ?
N1 C4 N4 111.8(7) . . ?
N1 C4 C2 127.0(7) . . ?
N4 C4 C2 120.9(7) . . ?
N5 C5 C3 123.0(7) . . ?
N8 C5 N5 110.8(7) . . ?
N8 C5 C3 125.8(7) . . ?

_shelx_res_file                  
;
TITL a in I4(1)/a
    a.res
    created by SHELXL-2018/3 at 15:09:07 on 17-Apr-2021
CELL 1.54178 15.4768 15.4768 14.4898 90 90 90
ZERR 16 0.0006 0.0006 0.0012 0 0 0
LATT 2
SYMM 0.5-X,-Y,0.5+Z
SYMM 0.75-Y,0.25+X,0.25+Z
SYMM 0.75+Y,0.75-X,0.75+Z
SFAC C H N O Cu
UNIT 80 32 128 8 16

L.S. 30
PLAN  20
BOND
fmap 2
acta
REM <olex2.extras>
REM <HklSrc "%.\\a.hkl">
REM </olex2.extras>

WGHT    0.105500  108.992393
FVAR       0.04952
CU1   5    0.270125    0.981278    0.891612    11.00000    0.03252    0.03224 =
         0.01928    0.00154    0.00289    0.00006
O1    4    0.429296    0.362224   -0.010107    10.50000    0.00787    0.02144 =
         0.00279   -0.00123   -0.00079   -0.00079
N1    3    0.179826    0.751412    1.003779    11.00000    0.05000    0.02892 =
         0.02193   -0.00277    0.00624   -0.00312
N2    3    0.179333    0.803544    1.077748    11.00000    0.04619    0.02725 =
         0.02148   -0.00407    0.00510   -0.00558
N3    3    0.205788    0.880513    1.054210    11.00000    0.03603    0.02844 =
         0.01824   -0.00258    0.00709   -0.00230
N4    3    0.225268    0.881278    0.963856    11.00000    0.03497    0.02408 =
         0.01607   -0.00019   -0.00195    0.00107
N5    3    0.366623    0.689346    0.969697    11.00000    0.05029    0.02617 =
         0.02143   -0.00073   -0.00649   -0.00168
N6    3    0.376472    0.627322    1.033579    11.00000    0.04289    0.03316 =
         0.02251    0.00518   -0.00970   -0.00470
N7    3    0.336526    0.557351    1.007065    11.00000    0.03604    0.03683 =
         0.01966    0.00675   -0.00518   -0.00455
N8    3    0.299361    0.573488    0.923797    11.00000    0.03685    0.03563 =
         0.01446   -0.00121   -0.00492    0.00185
C1    1    0.195670    0.819990    0.766004    11.00000    0.03276    0.02367 =
         0.02057   -0.00054    0.00044   -0.00213
AFIX  43
H1    2    0.159003    0.866611    0.776295    11.00000   -1.20000
AFIX   0
C2    1    0.228597    0.773987    0.840066    11.00000    0.03312    0.02356 =
         0.01823   -0.00107    0.00352   -0.00409
C3    1    0.282577    0.703500    0.824075    11.00000    0.02946    0.02357 =
         0.01880    0.00343   -0.00229   -0.00075
C4    1    0.208553    0.801124    0.935358    11.00000    0.03172    0.02652 =
         0.01646   -0.00005   -0.00172   -0.00350
C5    1    0.318228    0.653457    0.903279    11.00000    0.02938    0.02913 =
         0.01823    0.00031   -0.00044    0.00078
HKLF 4




REM  a in I4(1)/a
REM wR2 = 0.2529, GooF = S = 1.087, Restrained GooF = 1.087 for all data
REM R1 = 0.0768 for 1390 Fo > 4sig(Fo) and 0.0970 for all 1769 data
REM 136 parameters refined using 0 restraints

END

WGHT      0.1277     62.7383

REM Highest difference peak  1.192,  deepest hole -0.755,  1-sigma level  0.202
Q1    1   0.4255  0.3280 -0.0092  11.00000  0.05    1.19
Q2    1   0.4329  0.3729  0.0092  11.00000  0.05    1.17
Q3    1   0.0000  0.7500  0.8750  10.25000  0.05    1.15
Q4    1   0.0369  0.7616  1.1283  11.00000  0.05    0.77
Q5    1   0.3462  0.9663  0.9184  11.00000  0.05    0.74
Q6    1   0.4636  0.7646  0.8791  11.00000  0.05    0.69
Q7    1   0.2755  1.0619  0.8981  11.00000  0.05    0.57
Q8    1   0.4368  0.3108  0.0797  11.00000  0.05    0.57
Q9    1   0.3423  1.0043  0.8800  11.00000  0.05    0.54
Q10   1   0.3112  0.6853  0.8611  11.00000  0.05    0.53
Q11   1   0.4339  0.6894  0.9190  11.00000  0.05    0.50
Q12   1   0.5000  0.7500  0.9298  10.50000  0.05    0.49
Q13   1   0.2885  0.6476  0.9114  11.00000  0.05    0.48
Q14   1   0.2381  0.7269  0.8341  11.00000  0.05    0.46
Q15   1   0.3164  0.7869  0.8464  11.00000  0.05    0.43
Q16   1   0.0000  0.7500  1.0510  10.50000  0.05    0.42
Q17   1   0.3670  0.3982  0.0600  11.00000  0.05    0.42
Q18   1   0.2583  0.9061  0.8684  11.00000  0.05    0.42
Q19   1   0.3082  0.6078  0.8747  11.00000  0.05    0.41
Q20   1   0.2343  0.6209  0.9480  11.00000  0.05    0.39
;
_shelx_res_checksum              92816
_shelx_hkl_file                  
;
   0   0   2    0.80    0.09
   0   0  -4    3.83    0.16
   0   0   4    4.36    0.23
   0   0  -6    0.04    0.12
   0   0   6    0.07    0.15
   0   0  -8   31.19    0.43
   0   0 -12    4.16    0.34
   0   0 -14   -0.01    0.21
   0   0 -16    0.10    0.20
   0  -1   1   10.16    0.22
   0   1  -1   12.32    0.22
   1   0   3   36.50    0.33
   0  -1   3   40.72    0.56
   1   0   5    7.74    0.21
   0   1  -5    8.81    0.20
  -1   0   5    8.54    0.34
   1   0  -5    8.38    0.18
   0  -1  -5    8.02    0.19
   0  -1   5    8.57    0.33
   0   1   5    8.12    0.24
   0  -1  -7    3.41    0.17
   0   1  -7    3.47    0.18
  -1   0  -7    3.55    0.18
   1   0  -7    3.39    0.16
  -1   0   7    3.28    0.28
   0  -1   7    3.01    0.26
  -1   0  -9    2.23    0.21
   0   1  -9    2.43    0.21
  -1   0 -13    3.89    0.31
   1   0 -13    4.17    0.29
   0  -1 -13    3.83    0.30
   0   1 -13    4.20    0.31
   0   1 -15    2.05    0.24
   0  -1 -15    2.52    0.24
  -1   0 -15    2.39    0.25
  -1   0 -17    0.76    0.17
  -1   1   0    0.03    0.09
  -1  -1   0    0.00    0.07
   1   1   0    0.02    0.09
  -1  -1   2   24.19    0.43
   1  -1   2   22.22    0.34
   1  -1   4    7.25    0.25
  -1  -1   4    7.61    0.32
   1   1  -4    7.63    0.15
  -1  -1  -4    7.76    0.16
   1  -1  -4    7.23    0.15
  -1  -1  -6    2.60    0.16
  -1   1   6    1.85    0.23
   1  -1   6    1.71    0.20
   1  -1  -6    2.65    0.15
   1   1  -6    2.56    0.15
  -1  -1   6    1.93    0.27
   1   1  -8   25.76    0.39
  -1  -1  -8   25.74    0.41
  -1   1  -8   26.66    0.44
  -1   1 -10    3.64    0.25
  -1  -1 -10    3.18    0.24
  -1  -1 -12   75.72    0.90
  -1   1 -12   75.87    0.88
   1   1 -12   75.36    0.84
  -1   1 -14    0.10    0.22
   1   1 -14    0.02    0.20
  -1  -1 -14    0.01    0.23
  -1  -1 -16   38.64    0.54
  -1   1 -16   39.34    0.55
  -2   1  -1   42.27    0.38
  -1  -2   1   42.18    0.58
  -1  -2  -1   41.94    0.44
   1   2  -1   42.95    0.51
   2  -1   3   11.27    0.27
  -1  -2   3   10.85    0.39
   1   2  -5    2.17    0.14
  -1  -2  -5    2.04    0.14
  -1  -2   5    2.00    0.30
  -1  -2   7    4.58    0.37
  -1  -2  -7    5.04    0.20
   1   2  -7    4.51    0.20
  -2   1   7    4.14    0.36
  -2   1  -9    0.26    0.18
   1   2  -9    0.10    0.16
  -2   1 -11   14.88    0.43
  -2   1 -11   14.36    0.43
  -1  -2 -13   -0.17    0.27
  -2   1 -13   -0.03    0.25
   1   2 -13    0.17    0.22
  -2   1 -15    0.41    0.22
   1   2 -15   -0.07    0.21
  -1  -2 -15    0.27    0.22
  -2   1 -17    0.61    0.17
   0   2   0  615.94    2.17
   0  -2   0  621.81    1.73
   0  -2   2   30.90    0.49
   0   2  -2   29.82    0.48
   0  -2   4  227.17    1.52
   0  -2  -4  225.28    0.69
   0  -2  -6    0.48    0.12
   0   2  -6    0.29    0.13
   0  -2   6    0.27    0.21
  -2   0   6    0.16    0.21
  -2   0  -8   30.20    0.47
   0   2  -8   29.23    0.44
   0   2 -10    3.69    0.25
  -2   0 -10    3.12    0.25
   0   2 -12    4.13    0.33
  -2   0 -12    3.30    0.33
  -2   0 -14   -0.03    0.23
   0  -2 -14   -0.21    0.23
   0   2 -14    0.09    0.21
   0   2 -16   -0.27    0.20
  -2   0 -16   -0.32    0.21
   2   1  -1    8.74    0.23
   1  -2   1    8.74    0.30
   1  -2   3    2.54    0.25
   2   1  -5    6.20    0.16
  -2  -1   5    6.40    0.38
   1  -2   5    6.28    0.31
  -2  -1  -7    0.19    0.14
   2   1  -7    0.25    0.13
  -2  -1   7   -0.19    0.29
   1  -2   7    0.31    0.19
  -1   2  -9    0.56    0.18
  -2  -1  -9    0.35    0.17
  -1   2 -11    6.81    0.32
  -2  -1 -13    0.56    0.26
  -1   2 -13    0.80    0.25
  -2  -1 -15    1.01    0.24
  -1   2 -15    0.64    0.22
  -2  -1 -17    3.84    0.21
  -2   2   0   39.29    0.56
   2   2   0   41.64    0.59
  -2  -2  -2   92.70    0.62
  -2   2  -2   96.15    0.82
  -2  -2   2   95.15    1.03
   2  -2   2   95.83    0.85
   2   2  -2   95.32    0.85
  -2  -2  -4  240.96    0.80
   2  -2   4  240.61    1.49
  -2  -2   4  237.39    1.87
   2   2  -6   15.07    0.25
  -2  -2  -6   16.24    0.27
   2  -2   6   16.28    0.45
  -2  -2   6   15.68    0.59
   2   2  -8   78.08    0.65
  -2  -2  -8   78.97    0.68
  -2   2 -10    6.32    0.31
  -2   2 -12   23.90    0.55
   2   2 -12   22.87    0.49
   2   2 -14    0.74    0.22
  -2  -2 -14    0.60    0.25
  -2   2 -14    0.80    0.23
  -2  -2 -16   -0.02    0.19
  -2   2 -16   -0.10    0.20
   2   3  -1  252.73    1.52
  -3   2   1  255.32    1.40
  -2  -3   1  251.35    1.70
  -3   2  -1  253.87    1.17
  -2  -3  -1  252.87    1.46
  -2  -3  -3   39.13    0.41
   2   3  -3   41.41    0.72
   3  -2   5   21.27    0.46
   2   3  -5   19.55    0.25
  -2  -3   5   21.38    0.68
  -2  -3  -5   19.68    0.26
  -2  -3   7   10.53    0.58
   2   3  -7   11.73    0.26
  -2  -3  -7   11.05    0.26
  -3   2  -9   14.05    0.41
   2   3 -11    0.25    0.24
  -3   2 -11   -0.19    0.27
  -3   2 -11    0.03    0.24
  -3   2 -13   -0.05    0.25
   2   3 -13    0.08    0.22
  -3   2 -13    0.23    0.23
  -3   2 -15    0.36    0.21
  -2  -3 -15   -0.33    0.25
  -3   2 -17    0.46    0.16
  -1  -3   0    0.10    0.17
   1   3   0    0.20    0.28
  -3   1   0    0.08    0.09
  -1  -3  -2   57.84    0.59
  -1  -3   2   60.76    0.86
   1   3  -2   59.85    0.81
  -1  -3  -4   18.47    0.25
  -1  -3   4   18.94    0.61
  -1  -3   6   10.60    0.50
  -1  -3  -6   11.53    0.23
   1   3  -6   10.80    0.24
   1   3  -8   65.14    0.61
  -1  -3   8   66.43    1.23
   1   3 -10   25.52    0.46
  -3   1 -10   25.75    0.53
   1   3 -12   46.96    0.68
  -3   1 -12   46.58    0.75
  -3   1 -12   47.80    0.73
  -1  -3 -14   -0.03    0.24
   1   3 -14    0.01    0.21
  -3   1 -14    0.02    0.23
  -3   1 -16   30.22    0.51
   0  -3   1   21.32    0.49
   0   3   1   25.44    0.57
   0  -3  -1   21.89    0.43
   0   3  -1   25.02    0.54
   0   3  -3    4.29    0.30
   0  -3   3    4.59    0.30
   0  -3   5   17.08    0.58
  -3   0   7   17.42    0.68
   0  -3   7   16.29    0.59
   0   3  -7   17.69    0.34
  -3   0  -9   27.70    0.50
   0   3  -9   27.77    0.47
   0   3 -11   12.86    0.40
  -3   0 -11   12.99    0.41
   0   3 -11   13.01    0.39
  -3   0 -13    7.37    0.38
   0   3 -13    7.74    0.35
   0   3 -15    3.90    0.26
  -3   0 -15    4.14    0.29
  -3   0 -17    0.36    0.16
   1  -3   0   -0.01    0.16
   3   1   0    0.02    0.10
  -1   3   0    0.29    0.29
   1  -3   2    3.04    0.30
  -1   3  -2    4.29    0.35
   1  -3   4  105.67    1.12
  -3  -1   6    2.47    0.35
   1  -3   6    2.72    0.31
  -1   3  -8   46.93    0.59
  -3  -1   8   45.97    1.13
  -3  -1  -8   45.68    0.56
  -1   3 -10   -0.26    0.22
  -3  -1 -10    0.20    0.19
  -3  -1 -12  120.90    1.13
  -1   3 -12  123.90    1.10
  -3  -1 -14   -0.20    0.25
  -1   3 -14   -0.04    0.21
  -1   3 -16    9.99    0.32
  -3  -1 -16   10.67    0.34
   3   2   1   -0.15    0.26
   2  -3   1    0.29    0.22
  -2   3   1   -0.44    0.36
   3   2  -1    0.63    0.18
  -2   3  -1    0.16    0.29
  -3  -2   3   41.69    0.84
   2  -3   3   40.34    0.71
  -3  -2   5   13.81    0.60
   2  -3   5   14.25    0.49
  -3  -2  -7   25.00    0.42
   2  -3   7   22.97    0.66
  -3  -2   7   22.61    0.84
  -3  -2  -9   10.45    0.31
  -2   3  -9   10.97    0.36
  -2   3 -11   73.22    0.86
  -2   3 -11   74.95    0.88
  -2   3 -13    0.49    0.23
  -3  -2 -13    0.51    0.23
  -2   3 -13    0.78    0.23
  -3  -2 -15    3.82    0.30
  -2   3 -15    3.80    0.28
  -3  -2 -17    3.13    0.20
  -3   3   0    0.15    0.28
   3   3   0    0.26    0.28
  -3  -3   0   -0.02    0.22
   3   3  -2   19.51    0.50
  -3   3  -2   21.00    0.48
  -3  -3   2   19.15    0.61
  -3  -3  -2   19.24    0.47
   3  -3   2   20.44    0.51
  -3  -3  -4   12.60    0.21
   3  -3   4   11.84    0.44
  -3  -3   4   11.73    0.55
   3  -3   6   12.73    0.45
  -3  -3  -6   11.72    0.24
  -3  -3   6   11.78    0.60
  -3  -3  -8   78.14    0.67
  -3  -3   8   81.69    1.60
  -3   3 -10    7.12    0.35
  -3   3 -12   46.58    0.73
   3   3 -12   47.56    0.66
  -3   3 -14    1.50    0.24
  -3  -3 -14    1.12    0.23
  -3  -3 -14    1.01    0.27
  -3  -3 -16   27.00    0.48
  -3   3 -16   26.45    0.46
  -4   3  -1   36.36    0.55
  -3  -4  -1   38.22    0.73
   3   4   1   37.35    0.84
  -3  -4   1   36.49    0.80
   3   4  -1   35.22    0.69
  -4   3   1   37.56    0.70
   3   4  -3   32.09    0.73
  -3  -4   3   33.31    0.85
  -3  -4  -3   31.80    0.53
  -3  -4  -5    4.27    0.16
  -3  -4   5    4.56    0.45
   3   4  -5    4.22    0.15
  -3  -4   7   46.17    1.21
  -3  -4   9   11.81    0.71
   3   4 -11    5.23    0.31
  -3  -4 -11    5.56    0.35
  -4   3 -11    6.42    0.34
  -4   3 -11    5.90    0.37
  -4   3 -13    4.68    0.31
  -3  -4 -13    4.48    0.32
  -4   3 -13    4.99    0.34
  -4   3 -15    1.77    0.23
  -3  -4 -15    1.72    0.26
   2   4   0  997.42    3.59
  -4   2   0 1000.00    2.06
  -2  -4   0  999.27    3.51
   2   4  -2  102.80    1.18
  -2  -4  -2  102.04    0.95
   2   4  -4   66.95    0.40
  -2  -4   4   71.11    1.18
   2   4  -6   12.89    0.24
  -2  -4   6   12.75    0.60
   2   4  -8   38.51    0.47
  -2  -4   8   36.05    1.07
  -4   2 -10   -0.05    0.26
  -4   2 -12   -0.37    0.27
  -2  -4 -12    0.23    0.24
   2   4 -12    0.05    0.23
  -4   2 -12   -0.20    0.26
  -4   2 -14    1.20    0.24
  -2  -4 -14    0.82    0.26
  -4   2 -16    0.20    0.19
  -2  -4 -16    0.43    0.18
   1   4  -1   49.61    0.84
  -1  -4   1   52.68    0.84
   1   4   1   53.25    0.98
  -1  -4  -1   52.32    0.74
  -4   1   1   48.27    0.47
  -1  -4   3   35.26    0.77
   1   4  -3   36.29    0.78
  -1  -4   5    4.33    0.38
  -1  -4   7   17.13    0.68
   1   4  -7   17.59    0.32
   1   4  -9    5.74    0.25
  -4   1  -9    5.64    0.31
  -4   1 -11    0.75    0.24
   1   4 -11    0.87    0.24
  -4   1 -11    0.80    0.24
   1   4 -13    5.38    0.31
  -4   1 -13    5.99    0.34
  -4   1 -13    5.12    0.34
  -4   1 -15    0.77    0.22
  -4   1 -17    1.81    0.18
   0  -4   0  127.94    1.18
   0   4   0  123.27    1.33
   0  -4   2    2.07    0.28
   0   4  -2    1.66    0.31
   0  -4  -2    1.76    0.22
   0   4  -4  413.49    2.61
   0  -4   4  414.77    2.54
   0  -4   6   14.67    0.58
   0   4  -8   37.06    0.53
  -4   0   8   36.44    1.09
   0  -4   8   35.42    0.95
   0   4 -10    9.27    0.33
  -4   0 -10    8.86    0.35
   0   4 -12    0.11    0.24
  -4   0 -12    0.70    0.23
  -4   0 -12    0.26    0.23
   0   4 -14    1.48    0.24
  -4   0 -14    1.16    0.25
  -4   0 -16    0.64    0.19
   1  -4   1   68.54    0.92
  -1   4  -1   67.89    0.97
   1  -4  -1   67.28    0.85
  -1   4   1   68.43    1.09
  -1   4  -3   68.17    1.00
   1  -4   3   67.95    0.98
   1  -4   5   24.41    0.66
   1  -4   7   12.71    0.55
  -4  -1   7   13.15    0.68
  -4  -1  -9    3.57    0.24
  -1   4  -9    3.53    0.25
  -4  -1 -11   11.73    0.38
  -1   4 -11   10.17    0.39
  -4  -1 -11   10.55    0.39
  -1   4 -11   12.15    0.40
  -4  -1 -13   23.32    0.54
  -1   4 -13   24.64    0.53
  -4  -1 -15    3.39    0.29
  -1   4 -15    3.49    0.26
  -4  -1 -17    0.01    0.15
  -2   4   0   54.36    0.94
   4   2   0   52.24    0.58
  -2   4   2   18.69    0.58
  -2   4  -2   18.58    0.55
   2  -4   4  142.66    1.46
  -4  -2   4  141.88    1.73
   2  -4   6   45.56    0.92
  -4  -2   6   47.35    1.15
  -4  -2  -8  112.37    0.85
  -4  -2   8  116.18    1.96
  -4  -2 -10    1.53    0.21
  -2   4 -10    1.29    0.25
  -2   4 -12    4.45    0.32
  -4  -2 -12    4.05    0.32
  -4  -2 -14   10.12    0.43
  -2   4 -14   10.43    0.37
  -2   4 -16    0.33    0.18
  -4  -2 -16    0.04    0.19
   4   3  -1   39.97    0.60
  -4  -3  -1   37.63    0.73
  -4  -3   1   37.33    0.83
   4   3   1   41.57    0.75
  -3   4  -1   41.67    0.72
  -3   4   1   40.86    0.84
   3  -4   1   39.14    0.73
  -3   4  -3    4.70    0.35
   3  -4   3    4.38    0.34
  -4  -3  -3    3.68    0.26
  -4  -3   3    4.51    0.42
   3  -4   5   41.67    0.83
  -4  -3   5   40.75    1.04
  -4  -3  -5   39.98    0.39
   3  -4   7   17.38    0.63
  -4  -3  -7   18.14    0.35
  -4  -3   9    3.10    0.52
  -4  -3  -9    3.65    0.23
  -3   4 -11    1.65    0.28
  -4  -3 -11    2.13    0.28
  -3   4 -11    1.83    0.27
  -4  -3 -13    6.96    0.37
  -3   4 -13    7.41    0.35
  -3   4 -13    7.74    0.37
  -4  -3 -15    0.15    0.24
  -3   4 -15    0.32    0.20
  -4   4   0  198.43    1.48
   4   4   0  193.35    1.50
  -4  -4   0  194.20    1.79
  -4  -4  -2    6.42    0.35
   4   4  -2    6.03    0.35
   4   4   2    6.02    0.44
  -4  -4   2    6.47    0.45
  -4   4   2    6.20    0.43
  -4   4  -2    6.48    0.34
  -4  -4  -4  135.17    0.56
  -4  -4   4  140.09    1.86
  -4  -4  -6   19.83    0.31
  -4  -4   6   19.92    0.85
  -4  -4   8   37.04    1.24
  -4  -4 -10    0.48    0.25
  -4   4 -10    0.80    0.24
  -4  -4 -12    0.73    0.26
  -4   4 -12    0.23    0.24
  -4   4 -12    0.41    0.27
  -4   4 -14    4.47    0.28
  -4  -4 -14    4.18    0.30
  -4   4 -16    1.39    0.19
  -4  -4 -16    1.59    0.21
  -4  -5   1   12.09    0.58
  -5   4  -1    9.94    0.39
  -5   4   1   10.87    0.44
   4   5   1   11.29    0.54
  -4  -5  -1   11.04    0.50
   4   5  -1   10.21    0.47
  -5   4   3    1.46    0.33
   4   5  -3    1.55    0.33
  -4  -5  -3    1.96    0.27
   4   5   3    1.57    0.41
  -4  -5   3    1.63    0.38
  -4  -5   5    3.91    0.52
  -4  -5   7    0.11    0.42
  -4  -5   9    7.46    0.67
  -5   4 -11    0.22    0.24
  -5   4 -11   -0.53    0.32
  -4  -5 -11   -0.04    0.28
  -5   4 -13   10.31    0.38
  -4  -5 -13   10.64    0.44
  -5   4 -13   11.14    0.44
  -4  -5 -15    4.48    0.30
  -5   4 -15    4.86    0.26
  -5   3   0   -0.02    0.17
  -3  -5   0   -0.13    0.27
   3   5   0    0.24    0.30
   3   5   2   65.68    1.19
  -3  -5  -2   66.33    0.94
  -5   3   2   64.75    0.92
   3   5  -2   64.05    1.06
  -3  -5   4    2.73    0.42
   3   5  -4    2.39    0.38
  -3  -5   6    1.16    0.37
  -3  -5   8   28.94    1.06
   3   5 -10   -0.11    0.23
  -3  -5 -10   -0.32    0.29
  -5   3 -10    0.04    0.23
  -3  -5 -12   18.56    0.53
  -5   3 -12   19.02    0.50
  -3  -5 -14   -0.07    0.22
  -5   3 -14    0.05    0.20
  -5   3 -16   14.61    0.34
  -3  -5 -16   14.36    0.33
   2   5  -1  163.14    1.64
  -5   2   1  166.46    0.94
   2   5   1  175.93    1.85
  -2  -5   1  170.06    1.67
  -2  -5  -1  174.55    1.54
   2   5  -3   62.99    1.08
  -2  -5   3   63.87    1.14
  -2  -5   5   10.59    0.60
   2   5  -5   10.06    0.23
   2   5  -7    6.77    0.23
  -2  -5   7    5.82    0.54
   2   5  -9   20.01    0.38
  -2  -5   9   18.80    0.88
  -5   2 -11    1.54    0.29
  -2  -5 -11    1.06    0.27
  -5   2 -11    1.60    0.27
   2   5 -11    1.54    0.26
  -5   2 -13    0.11    0.25
  -5   2 -13    0.30    0.24
  -2  -5 -15    8.56    0.33
  -5   2 -15    8.53    0.32
  -5   2 -17    3.35    0.18
   1   5   0    0.32    0.35
  -1  -5   0    0.15    0.23
   1   5  -2   11.74    0.54
  -1  -5  -2   12.14    0.44
  -1  -5   2   12.12    0.53
   1   5   2   13.20    0.60
  -1  -5   4   14.76    0.59
   1   5  -4   13.49    0.59
  -1  -5   6    0.27    0.31
   1   5  -6    0.84    0.15
   1   5  -8   51.42    0.56
  -1  -5   8   50.42    1.21
  -5   1   8   52.53    1.38
   1   5 -10    1.35    0.20
  -5   1 -10    0.84    0.25
   1   5 -12    4.14    0.30
  -5   1 -12    3.51    0.31
  -5   1 -12    4.18    0.31
  -5   1 -14   -0.10    0.22
  -5   1 -16   22.22    0.43
   0  -5  -1   45.50    0.79
   0  -5   1   46.92    0.87
   0  -5   3   15.65    0.62
   0   5  -3   14.91    0.65
   0  -5   5   39.66    0.92
   0  -5   7    1.73    0.35
  -5   0  -9   21.45    0.48
   0   5  -9   21.66    0.43
   0   5 -11   16.96    0.43
  -5   0 -11   16.85    0.46
   0   5 -11   17.43    0.45
  -5   0 -11   16.58    0.48
  -5   0 -13    3.39    0.32
   0   5 -13    3.79    0.29
  -5   0 -15    4.86    0.30
  -5   0 -17    0.84    0.16
   1  -5   0   -0.14    0.26
  -1   5   0    0.46    0.36
   1  -5  -2   16.50    0.49
   1  -5   2   16.85    0.57
  -1   5   2   16.34    0.63
  -1   5  -2   16.30    0.59
   1  -5   4   46.07    0.94
  -1   5  -4   43.77    0.96
   1  -5   6    1.26    0.31
  -5  -1   6    0.47    0.33
   1  -5   8  103.41    1.58
  -5  -1  -8  100.16    0.87
  -5  -1   8  103.46    1.94
  -1   5 -10   -0.06    0.22
  -5  -1 -10    0.01    0.21
  -5  -1 -12   17.44    0.50
  -1   5 -12   16.54    0.46
  -5  -1 -12   17.16    0.46
  -1   5 -12   16.38    0.45
  -1   5 -14    0.28    0.21
  -5  -1 -14    0.16    0.24
  -5  -1 -16   15.23    0.38
   5   2   1    4.12    0.27
  -2   5   1    3.10    0.46
  -2   5  -1    3.67    0.41
  -2   5  -3    5.97    0.43
   2  -5   3    5.55    0.42
   2  -5   5    1.17    0.34
  -5  -2   5    1.31    0.38
  -5  -2  -7   71.54    0.66
   2  -5   7   73.18    1.29
  -5  -2   7   73.37    1.59
  -5  -2  -9   30.31    0.51
  -5  -2   9   32.69    1.21
  -5  -2 -11    2.66    0.29
  -2   5 -11    2.49    0.27
  -5  -2 -11    2.31    0.24
  -2   5 -11    2.02    0.27
  -2   5 -13    1.94    0.26
  -5  -2 -13    1.65    0.27
  -2   5 -13    1.63    0.25
  -5  -2 -15    0.22    0.23
  -2   5 -15    0.41    0.20
  -5  -2 -17    3.46    0.19
  -5  -3   0   -0.17    0.27
   5   3   0   -0.22    0.20
  -3   5   0   -0.36    0.33
  -5  -3   2    2.66    0.38
  -5  -3  -2    2.83    0.29
  -3   5   2    2.71    0.42
   3  -5   2    3.07    0.34
  -3   5  -2    2.57    0.35
   5   3   2    2.59    0.34
   3  -5   4   50.46    0.98
  -5  -3   4   51.32    1.21
  -3   5  -4   50.23    1.00
  -5  -3  -6    1.87    0.18
   3  -5   6    2.00    0.35
  -5  -3   6    1.89    0.43
  -5  -3  -8   33.54    0.48
  -5  -3   8   33.63    1.22
  -5  -3 -10    0.40    0.18
  -3   5 -10    0.46    0.23
  -3   5 -10   -0.14    0.27
  -5  -3 -10    0.37    0.23
  -3   5 -12    9.91    0.38
  -5  -3 -12    9.91    0.42
  -3   5 -12    9.96    0.40
  -3   5 -14    0.45    0.21
  -5  -3 -14    0.23    0.22
  -5  -3 -16   14.51    0.37
  -5  -4  -1   -0.01    0.26
  -5  -4   1    0.04    0.28
  -4   5  -1   -0.02    0.27
  -4   5   1    0.09    0.31
   5   4   1    0.52    0.29
   5   4  -1    0.40    0.22
   5   4   3   78.48    1.16
  -4   5   3   75.18    1.25
  -5  -4   3   80.01    1.47
  -4   5  -3   78.85    1.16
  -5  -4  -3   79.08    1.00
  -5  -4   5    8.15    0.60
   4  -5   5    9.80    0.50
  -5  -4  -7   53.13    0.52
  -5  -4   7   53.19    1.47
  -5  -4   9    1.53    0.48
  -4   5 -11    0.72    0.24
  -4   5 -11   -0.06    0.29
  -5  -4 -11    0.36    0.26
  -5  -4 -13   15.88    0.50
  -4   5 -13   15.22    0.47
  -4   5 -13   15.35    0.44
  -5  -4 -15    3.65    0.30
  -4   5 -15    3.94    0.25
   5   5   0   -0.33    0.33
  -5   5   0   -0.32    0.30
  -5  -5   0   -0.37    0.31
  -5  -5  -2    6.48    0.42
  -5   5  -2    6.28    0.38
  -5   5   2    7.03    0.50
  -5  -5   2    6.50    0.53
   5   5  -2    6.45    0.40
   5   5   2    7.06    0.54
  -5   5   4   45.00    1.03
  -5  -5   4   47.70    1.27
   5   5   4   44.68    1.03
  -5  -5   6    5.17    0.58
  -5  -5   8   12.99    0.87
  -5  -5 -10    1.14    0.28
  -5   5 -10    1.16    0.24
  -5   5 -12   15.47    0.44
  -5   5 -12   16.07    0.52
  -5  -5 -12   16.71    0.53
  -5  -5 -14    0.13    0.24
  -5   5 -14   -0.15    0.20
  -5  -5 -16    2.34    0.20
  -5  -6   1    6.55    0.53
   5   6  -1    5.21    0.44
   5   6   1    5.97    0.47
  -6   5  -1    5.58    0.35
  -5  -6  -1    5.64    0.44
  -6   5   1    5.73    0.39
   5   6   3   56.33    1.25
   5   6  -3   60.07    1.15
  -6   5   3   55.01    1.09
  -5  -6   3   62.26    1.45
  -6   5   5   -0.23    0.43
   5   6   5   -0.21    0.47
  -5  -6   5   -0.09    0.40
  -5  -6   7   12.29    0.86
  -6   5  -9    1.88    0.27
  -5  -6   9    1.47    0.52
   6  -5  -9    2.66    0.25
  -6   5 -11   37.10    0.63
  -6   5 -11   35.83    0.76
  -5  -6 -11   37.85    0.77
   5   6 -13   19.35    0.41
  -6   5 -13   18.79    0.45
  -5  -6 -15   -0.12    0.21
  -6   5 -15    0.21    0.17
   4   6   0    3.34    0.43
  -6   4   0    3.31    0.27
  -4  -6   0    3.58    0.39
  -4  -6  -2    2.77    0.33
  -4  -6   2    3.03    0.42
  -6   4   2    1.45    0.31
   4   6  -2    2.51    0.38
   4   6   2    2.68    0.49
   4   6  -4   66.48    1.26
   4   6   4   64.13    1.31
  -6   4   4   63.29    1.10
  -4  -6   4   65.12    1.45
  -4  -6   6   -0.19    0.38
  -4  -6   8   20.11    0.99
  -6   4 -10   12.44    0.41
  -6   4 -12   15.07    0.52
  -6   4 -12   14.10    0.44
  -4  -6 -12   15.33    0.52
  -6   4 -14    2.48    0.24
  -4  -6 -14    2.48    0.27
   4   6 -14    1.72    0.21
  -4  -6 -16    1.01    0.16
  -6   4 -16    0.89    0.16
  -3  -6   1   31.00    0.84
   3   6   1   29.57    0.86
   3   6  -1   30.34    0.82
  -3  -6  -1   31.74    0.79
  -3  -6   3   38.09    1.02
   3   6  -3   39.07    0.96
   3   6   3   38.87    1.04
  -6   3   3   37.90    0.75
  -3  -6  -3   40.16    0.78
  -3  -6   5   10.85    0.64
  -3  -6   7    8.94    0.66
  -3  -6   9    9.67    0.74
  -6   3 -11   10.70    0.40
  -6   3 -11   10.81    0.46
  -3  -6 -11    9.65    0.46
  -6   3 -13   12.58    0.41
  -3  -6 -13   12.25    0.46
  -6   3 -13   12.58    0.45
  -3  -6 -15    8.95    0.33
   3   6 -15    9.33    0.27
  -6   3 -15    9.08    0.31
   2   6   0  127.10    1.56
  -2  -6   0  121.47    1.52
   2   6   2   16.09    0.73
   2   6  -2   15.27    0.65
  -2  -6  -2   16.82    0.56
  -2  -6   2   16.30    0.65
   2   6   4  154.66    1.90
   2   6  -4  155.80    1.95
  -2  -6   6   -0.14    0.39
  -2  -6   8    4.34    0.54
   2   6  -8    4.81    0.22
  -6   2 -10    0.46    0.27
   2   6 -10    0.77    0.25
  -6   2 -12   10.95    0.44
  -2  -6 -12    9.47    0.43
  -6   2 -12   10.24    0.40
  -6   2 -14   11.76    0.38
  -6   2 -16    0.20    0.16
   2   6 -16   -0.18    0.15
   1   6   1    5.75    0.55
   1   6  -1    6.50    0.51
  -1  -6  -1    6.91    0.43
  -1  -6   1    6.40    0.44
  -1  -6   3  106.28    1.52
   1   6  -3  105.33    1.55
  -1  -6  -3  110.94    1.24
   1   6   3  108.52    1.58
  -1  -6   5  112.14    1.67
   1   6  -7    0.39    0.16
  -1  -6   7    0.69    0.32
   1   6  -9    1.97    0.19
  -1  -6   9    1.68    0.39
  -6   1 -11    1.72    0.27
  -6   1 -11    1.72    0.26
   1   6 -11    1.55    0.26
  -6   1 -13    0.00    0.24
  -6   1 -13    0.29    0.23
  -6   1 -15    1.49    0.22
  -6   1 -17    1.10    0.14
   0  -6   0   77.00    1.18
   0   6   0   75.88    1.24
   0   6   2    3.07    0.49
   0  -6   2    3.04    0.39
   0  -6  -2    2.77    0.33
   0   6  -2    2.17    0.41
   0  -6   4  115.36    1.61
   0   6  -4  112.06    1.70
   0  -6   6   25.38    0.86
   0  -6   8   15.89    0.75
  -6   0   8   15.45    0.88
   0   6  -8   16.52    0.36
  -6   0 -10    2.65    0.28
   0   6 -10    2.77    0.24
  -6   0 -10    2.33    0.28
   0   6 -10    2.53    0.27
   0   6 -12   13.00    0.42
  -6   0 -12   12.78    0.44
  -6   0 -12   12.71    0.42
  -6   0 -14   -0.09    0.22
  -6   0 -16    2.19    0.20
  -1   6  -1   20.94    0.73
   1  -6   1   21.18    0.67
  -1   6   1   20.41    0.78
   1  -6  -1   20.66    0.64
  -1   6   3   35.78    0.96
  -1   6  -3   37.31    0.97
   1  -6   3   37.06    0.92
   1  -6   5   81.08    1.39
   1  -6   7   27.87    0.91
  -6  -1   7   27.93    1.07
  -6  -1  -9   12.80    0.39
  -1   6  -9   13.37    0.38
  -6  -1   9   12.18    0.83
  -1   6 -11    3.72    0.28
  -1   6 -11    3.17    0.30
  -6  -1 -11    3.38    0.31
  -6  -1 -11    3.19    0.28
  -1   6 -13    0.29    0.22
  -6  -1 -13    0.35    0.23
  -6  -1 -15   -0.37    0.23
  -6  -1 -17    0.98    0.14
  -2   6   0   76.95    1.21
   2  -6   0   76.27    1.17
  -2   6   2   10.19    0.62
   2  -6   2   10.96    0.54
  -2   6  -2   10.47    0.57
   6   2   2   10.34    0.38
   2  -6   4   44.91    1.02
  -2   6  -4   46.18    1.10
  -2   6   4   44.54    1.06
   2  -6   6    4.78    0.48
  -6  -2   6    5.74    0.58
  -6  -2   8   67.20    1.71
  -6  -2  -8   67.09    0.71
  -2   6 -10    2.13    0.27
  -2   6 -10    1.93    0.26
  -6  -2 -10    1.96    0.22
  -6  -2 -10    2.38    0.28
  -2   6 -12    2.81    0.30
  -2   6 -12    2.77    0.29
  -6  -2 -12    2.46    0.31
  -2   6 -14    2.15    0.24
  -6  -2 -14    1.46    0.27
  -6  -2 -16    0.05    0.18
  -3   6   1  108.89    1.48
  -6  -3   1  109.72    1.63
   3  -6   1  111.32    1.45
   6   3   1  110.74    0.87
  -6  -3  -1  109.49    1.46
  -3   6  -1  113.72    1.45
   6   3   3   25.94    0.65
   3  -6   3   26.81    0.79
  -6  -3  -3   25.52    0.63
  -3   6  -3   27.15    0.81
  -3   6   3   25.51    0.87
  -6  -3   3   26.14    0.92
   3  -6   5   32.65    0.89
  -6  -3   5   33.77    1.12
   3  -6   7   26.08    0.86
  -6  -3  -7   24.37    0.40
  -6  -3   7   26.91    1.09
  -6  -3  -9   18.93    0.39
  -6  -3   9   20.67    1.10
  -3   6 -11    4.12    0.31
  -6  -3 -11    4.71    0.34
  -3   6 -11    3.88    0.33
  -3   6 -13   -0.27    0.23
  -6  -3 -13   -0.13    0.25
  -3   6 -13   -0.17    0.22
  -6  -3 -15    1.12    0.24
   6   4   0   71.71    0.84
  -6  -4   0   73.01    1.32
  -4   6   0   74.49    1.18
   6   4   2   11.04    0.51
  -4   6  -2   10.77    0.56
  -4   6   2   11.33    0.63
  -6  -4  -2   11.89    0.52
  -4   6   4  132.56    1.85
   4  -6   4  138.82    1.72
   6   4   4  135.70    1.57
  -6  -4   4  141.11    2.17
  -4   6  -4  137.79    1.75
  -6  -4   6   13.44    0.79
   4  -6   6   13.33    0.62
  -6  -4   8    6.85    0.75
  -4   6 -10    0.13    0.22
  -6  -4 -10   -0.23    0.26
  -6  -4 -12    3.06    0.33
  -4   6 -12    2.72    0.28
  -4   6 -12    2.87    0.31
  -4   6 -14    9.88    0.34
  -6  -4 -14   10.61    0.40
  -6  -4 -16    0.35    0.17
   6   5   1    0.66    0.30
  -6  -5   1    0.12    0.34
   6   5  -1    0.19    0.26
  -5   6   1    0.41    0.34
  -6  -5  -1   -0.16    0.31
  -5   6  -1   -0.02    0.34
  -5   6   3   37.22    1.02
  -5   6  -3   38.55    0.91
   6   5   3   38.22    0.98
  -6  -5   3   40.63    1.19
   6   5   5    6.66    0.56
  -5   6   5    6.51    0.59
  -6  -5   5    8.25    0.67
  -6  -5   7    9.85    0.86
   5  -6  -9   23.78    0.47
  -6  -5  -9   24.44    0.60
  -6  -5   9   22.67    1.15
  -5   6  -9   24.68    0.50
   6   5 -11   -0.09    0.21
  -5   6 -11    0.02    0.23
  -5   6 -11   -0.02    0.27
  -6  -5 -11   -0.17    0.28
  -5   6 -13    6.10    0.31
  -6  -5 -13    6.86    0.38
  -6  -5 -15    1.82    0.24
  -6   6   0   46.29    0.88
  -6  -6   0   47.60    1.19
   6   6  -2   11.87    0.55
  -6  -6  -2   10.26    0.55
   6   6   2   11.77    0.61
  -6   6   2   12.94    0.57
  -6  -6   2   13.84    0.79
  -6   6  -2   11.99    0.53
  -6   6   4    1.99    0.47
  -6  -6   4    2.18    0.48
   6   6   4    1.97    0.51
  -6  -6   6    6.63    0.71
   6   6   6    6.35    0.68
  -6   6   6    7.61    0.72
  -6  -6   8   25.45    1.20
   6   6 -10    5.41    0.30
  -6   6 -10    6.24    0.32
   6  -6 -10    5.78    0.30
  -6  -6 -10    5.88    0.40
  -6   6 -12   -0.22    0.24
  -6  -6 -12    0.30    0.27
  -6   6 -12   -0.09    0.27
   6   6 -12   -0.13    0.22
  -6   6 -14   10.22    0.31
  -6  -6 -14   11.36    0.41
  -6  -6 -16    2.86    0.17
   6   7   1   31.76    0.89
   6   7  -1   33.93    0.88
  -6  -7   1   34.04    1.13
  -6  -7  -1   33.05    0.98
   6   7   3    2.86    0.50
  -6  -7   3    1.89    0.49
   6   7  -3    1.66    0.37
  -6  -7   5    6.26    0.69
   6   7   5    5.43    0.70
  -6  -7   7    4.71    0.65
   6   7   7    2.19    0.74
   7  -6  -9    8.40    0.36
   6   7  -9    8.82    0.35
  -7   6 -11   10.96    0.49
  -6  -7 -11   13.00    0.51
   6   7 -11   13.51    0.38
  -7   6 -11   12.34    0.39
   7  -6 -11   11.91    0.37
  -6  -7 -13    6.90    0.38
   6   7 -13    7.52    0.26
  -7   6 -13    7.13    0.29
  -6  -7 -15    0.74    0.18
  -5  -7   0   -0.43    0.36
   5   7   0   -0.62    0.42
   5   7  -2   18.81    0.75
   5   7   2   19.89    0.80
  -5  -7  -2   18.33    0.70
  -5  -7   2   19.57    0.88
  -5  -7   4    0.79    0.40
   5   7   4    0.69    0.52
  -5  -7   6   11.10    0.80
   5   7   6   12.05    0.85
   7  -5  -8   25.18    0.51
  -5  -7   8   24.30    1.15
  -7   5 -10    3.07    0.27
   7  -5 -10    2.60    0.26
  -7   5 -12   13.63    0.40
   5   7 -12   13.04    0.37
  -5  -7 -12   13.83    0.51
  -7   5 -14   -0.13    0.18
  -5  -7 -14   -0.01    0.21
   5   7 -14   -0.04    0.16
  -4  -7   1   63.45    1.33
   4   7   1   62.93    1.20
  -4  -7  -1   63.25    1.22
   4   7  -1   60.90    1.21
   4   7   3    0.91    0.55
   4   7  -3    0.67    0.41
  -4  -7   3    0.32    0.43
   4   7   5    6.91    0.68
  -4  -7   5    9.25    0.66
   4   7   7   41.84    1.32
  -4  -7   7   39.55    1.33
  -7   4  -9   21.11    0.49
   7  -4  -9   19.03    0.46
  -4  -7   9   18.83    1.01
  -7   4 -11    0.44    0.23
  -7   4 -11    0.28    0.29
  -4  -7 -11    0.42    0.29
   7  -4 -11    0.62    0.23
  -4  -7 -13    9.03    0.42
  -7   4 -13    8.95    0.33
  -4  -7 -15    6.01    0.27
   4   7 -15    6.33    0.21
  -7   4 -15    6.58    0.25
   3   7   0    0.16    0.38
  -3  -7   0    0.02    0.30
   3   7  -2   74.74    1.37
  -3  -7   2   77.55    1.47
  -3  -7  -2   77.79    1.25
  -3  -7   4    0.82    0.40
   3   7   4   -0.09    0.55
   3   7  -4    0.23    0.43
  -3  -7   6    1.39    0.41
   3   7   6    0.98    0.49
  -3  -7   8   13.81    0.84
   7  -3 -10    0.12    0.21
  -7   3 -10    0.08    0.25
  -7   3 -12   36.73    0.64
  -3  -7 -12   36.04    0.74
  -7   3 -12   38.04    0.74
  -7   3 -14    1.00    0.20
  -3  -7 -14    0.42    0.21
  -7   3 -16    6.29    0.22
   3   7 -16    6.27    0.17
   2   7  -1    8.38    0.58
  -2  -7   1    9.28    0.54
   2   7   1   10.31    0.62
  -2  -7  -1    9.87    0.53
  -2  -7   3    2.47    0.43
   2   7  -3    1.38    0.46
   2   7   3    1.82    0.54
  -2  -7  -3    1.47    0.32
  -2  -7   5   34.10    1.05
   2   7   5   34.70    1.10
   2   7  -5   34.29    1.10
  -2  -7   7   24.63    0.97
  -7   2  -9   26.19    0.55
  -2  -7   9   23.96    1.04
  -7   2 -11   12.10    0.42
  -7   2 -11   12.39    0.47
  -7   2 -13    6.26    0.33
  -7   2 -15    7.84    0.28
  -1  -7   0   -0.03    0.31
   1   7   0    0.43    0.39
   1   7   2    0.70    0.46
  -1  -7  -2    0.85    0.29
   1   7  -2    0.46    0.41
  -1  -7   2    1.03    0.33
  -1  -7   4   52.67    1.19
   1   7  -4   53.70    1.29
   1   7   4   54.10    1.29
  -1  -7   6   -0.05    0.32
  -1  -7   8    7.15    0.61
  -7   1 -10   -0.49    0.29
  -7   1 -10    0.15    0.22
  -7   1 -12   24.66    0.57
  -7   1 -12   24.72    0.57
  -7   1 -14   -0.06    0.21
   1   7 -16    4.51    0.18
  -7   1 -16    5.00    0.23
   0   7   1   21.63    0.79
   0  -7   1   22.07    0.74
   0  -7  -1   22.34    0.71
   0   7  -1   21.56    0.79
   0   7   3    0.55    0.46
   0   7  -3    0.48    0.40
   0  -7   3    0.41    0.33
   0  -7   5   54.73    1.27
   0   7   5   56.30    1.37
   0  -7   7    5.69    0.54
   0   7  -9   19.56    0.41
   0   7  -9   19.74    0.47
  -7   0   9   19.49    1.05
  -7   0  -9   19.49    0.50
  -7   0 -11   44.63    0.74
  -7   0 -11   43.35    0.70
   0   7 -11   43.76    0.60
   0   7 -11   45.23    0.69
  -7   0 -13    6.17    0.35
  -7   0 -15    5.63    0.29
  -7   0 -17    4.52    0.16
  -1   7   0   -0.18    0.38
   1  -7   0   -0.13    0.29
  -1   7   2    9.96    0.66
   1  -7  -2   10.37    0.49
  -1   7  -2    9.46    0.61
   1  -7   2    9.85    0.56
  -1   7   4   29.19    1.01
  -1   7  -4   29.06    1.00
   1  -7   4   30.05    0.95
   1  -7   6    4.57    0.50
  -7  -1   8   39.96    1.42
   1  -7   8   38.97    1.16
  -1   7 -10    0.58    0.25
  -7  -1 -10    0.58    0.22
  -7  -1 -10    1.13    0.25
  -1   7 -10    0.67    0.21
   7   1 -10    1.05    0.24
  -1   7 -12   18.32    0.48
  -7  -1 -12   16.80    0.44
  -1   7 -12   17.41    0.43
  -7  -1 -12   17.70    0.51
  -7  -1 -14   -0.19    0.24
  -7  -1 -16    9.58    0.28
  -2   7   1    1.04    0.41
  -2   7  -1    1.02    0.40
   2  -7   1    0.81    0.31
   2  -7  -1    1.30    0.30
   2  -7   3   15.33    0.67
  -2   7   3   14.09    0.76
  -2   7  -3   14.55    0.71
  -2   7  -5   17.02    0.82
   2  -7   5   16.77    0.75
  -7  -2   5   17.52    0.88
  -2   7   5   17.14    0.83
  -7  -2   7   32.54    1.26
   2  -7   7   32.24    1.03
  -7  -2   9    2.12    0.50
  -7  -2  -9    2.20    0.23
  -2   7  -9    2.53    0.26
  -7  -2  -9    2.88    0.29
  -7  -2 -11    0.97    0.22
  -2   7 -11    0.58    0.24
  -2   7 -11    0.53    0.25
  -7  -2 -11    0.99    0.27
  -7  -2 -13    2.14    0.28
  -2   7 -13    2.48    0.25
  -7  -2 -15   17.71    0.43
  -3   7   0    0.02    0.36
  -3   7   2   23.93    0.87
  -3   7  -2   24.38    0.83
   3  -7   2   24.31    0.81
  -7  -3   2   23.32    0.91
  -7  -3  -2   22.32    0.72
  -3   7   4    2.08    0.51
  -7  -3   4    1.99    0.48
  -3   7  -4    2.86    0.47
   3  -7   4    2.57    0.40
   3  -7   6    1.86    0.39
  -3   7   6    0.62    0.52
  -7  -3   6    1.75    0.47
  -7  -3   8   27.30    1.21
  -3   7 -10    0.12    0.25
  -7  -3 -10    1.00    0.26
  -3   7 -10    0.86    0.23
   7   3 -10    0.49    0.25
  -3   7 -12    1.77    0.25
  -7  -3 -12    1.72    0.29
  -3   7 -12    1.88    0.26
  -7  -3 -14   -0.22    0.24
  -7  -3 -16    5.99    0.24
  -4   7  -1   20.48    0.77
  -4   7   1   21.65    0.78
  -7  -4   1   24.83    0.92
  -7  -4  -1   23.93    0.81
  -4   7   3    5.54    0.61
  -4   7  -3    5.60    0.52
  -7  -4   3    6.66    0.63
  -4   7   5   -0.33    0.53
   4  -7   5    0.76    0.31
  -7  -4   5    0.55    0.41
  -7  -4   7   22.98    1.18
  -4   7   7   26.73    1.15
  -7  -4  -9    5.63    0.36
   7   4  -9    5.59    0.34
  -4   7  -9    6.29    0.32
  -4   7   9    4.61    0.78
  -7  -4   9    5.12    0.72
  -4   7 -11   -0.12    0.27
  -4   7 -11    0.11    0.23
  -7  -4 -11    0.27    0.26
  -7  -4 -13   15.41    0.49
  -4   7 -13   13.64    0.39
  -7  -4 -15   17.56    0.43
  -5   7   0   -0.62    0.42
  -7  -5   0   -0.42    0.38
  -5   7   2   29.64    0.90
  -5   7  -2   26.85    0.86
  -7  -5   2   30.63    1.07
  -7  -5  -2   27.72    0.86
  -5   7   4    6.97    0.65
  -7  -5   4    7.86    0.68
  -5   7   6   25.74    1.14
  -7  -5   6   27.20    1.21
  -5   7   8   22.52    1.19
  -7  -5   8   20.36    1.14
  -7  -5 -10   -0.24    0.27
  -5   7 -10   -0.31    0.24
   7   5 -10   -0.27    0.27
  -5   7 -12   10.09    0.42
  -5   7 -12   10.30    0.37
  -7  -5 -14    0.97    0.23
  -7  -5 -16    1.30    0.15
  -6   7   1   10.89    0.60
  -6   7  -1   11.14    0.58
  -7  -6  -1   11.67    0.65
  -7  -6   1   11.28    0.75
  -6   7   3   14.59    0.68
  -6   7  -3   13.15    0.61
  -7  -6   3   13.66    0.86
  -6   7   5    0.15    0.59
  -7  -6   5    0.31    0.53
  -7  -6   7   19.50    1.12
  -6   7  -9   13.57    0.41
   7   6  -9   13.46    0.38
  -7  -6  -9   13.77    0.50
   6  -7  -9   13.24    0.40
  -6   7 -11    2.32    0.26
  -7  -6 -11    2.54    0.32
   7   6 -11    2.62    0.24
  -6   7 -11    2.38    0.32
  -7  -6 -13    0.30    0.24
  -6   7 -13    0.54    0.20
  -7  -6 -15    4.93    0.25
  -7  -7   0   -0.66    0.42
  -7  -7   2   20.95    1.03
  -7  -7   4    6.89    0.73
  -7  -7   6   40.75    1.51
   7   7  -8    0.72    0.23
   7  -7  -8    0.95    0.25
  -7  -7 -10    0.80    0.29
   7   7 -10    0.68    0.22
  -7   7 -10    0.91    0.23
   7  -7 -10    1.18    0.23
   7   7 -12   17.35    0.35
  -7  -7 -12   18.05    0.54
  -7  -7 -14    0.28    0.20
  -7  -8   1   23.47    1.02
  -7  -8  -1   23.12    0.92
  -7  -8   3   40.49    1.41
  -7  -8   5    5.51    0.71
   8  -7   7    1.70    0.24
   8  -7  -7    1.90    0.27
   7   8  -7    2.01    0.25
   7   8  -9    6.73    0.30
   8  -7  -9    6.48    0.34
  -7  -8 -11    2.21    0.33
   7   8 -11    2.80    0.24
  -8   7 -11    2.44    0.25
   7   8 -13    0.15    0.13
  -7  -8 -13    0.00    0.21
  -7  -8 -15    0.24    0.12
   6   8   0   77.27    1.37
  -6  -8   0   77.57    1.62
   6   8   2   19.51    0.80
  -6  -8   2   18.98    0.94
   6   8  -2   18.85    0.76
  -6  -8   4   10.95    0.81
   6   8   4   10.25    0.75
  -6  -8   6   10.12    0.84
   8  -6  -8    0.57    0.25
   6   8  -8    0.42    0.24
  -8   6 -10    4.63    0.30
  -6  -8 -10    4.55    0.39
   6   8 -10    5.13    0.30
   8  -6 -10    4.53    0.30
  -8   6 -12    1.40    0.23
   6   8 -12    1.46    0.22
  -6  -8 -12    1.12    0.31
   6   8 -14    5.69    0.19
  -6  -8 -14    6.11    0.29
   5   8  -1   58.93    1.28
  -5  -8   1   60.69    1.45
  -5  -8  -1   59.75    1.30
   5   8   1   60.25    1.26
   5   8  -3    4.32    0.51
  -5  -8   3    5.81    0.60
   5   8   3    6.09    0.61
   5   8   5   -0.46    0.62
  -5  -8   5    0.04    0.45
   5   8   7   39.20    1.45
   8  -5  -7   42.70    0.67
  -5  -8   7   38.25    1.42
  -8   5  -9    5.11    0.31
   8  -5  -9    5.15    0.31
  -5  -8 -11   10.37    0.49
   8  -5 -11    9.70    0.36
   5   8 -11   10.28    0.35
  -8   5 -11    9.75    0.36
  -5  -8 -13    1.28    0.27
   5   8 -13    0.99    0.19
  -8   5 -13    1.17    0.20
  -5  -8 -15    0.55    0.15
   5   8 -15    0.93    0.11
   4   8   0   43.42    1.12
  -4  -8   0   43.38    1.14
   4   8  -2    6.62    0.57
  -4  -8   2    5.85    0.57
  -4  -8  -2    5.49    0.48
  -4  -8   4   42.58    1.30
   4   8   4   42.34    1.29
   4   8  -4   41.76    1.21
   4   8   6   -1.34    0.76
  -4  -8   6   -0.15    0.42
   4   8   8   -0.63    0.76
  -4  -8   8    0.28    0.43
   8  -4  -8    0.32    0.23
   8  -4 -10    0.93    0.22
  -8   4 -10    0.68    0.23
  -8   4 -12    1.46    0.23
   4   8 -12    0.65    0.22
  -4  -8 -12    1.41    0.31
  -8   4 -14    4.43    0.23
  -4  -8 -14    3.87    0.27
   4   8 -14    4.25    0.22
   3   8   1   77.27    1.42
  -3  -8  -1   77.94    1.40
   3   8  -1   76.09    1.45
  -3  -8   1   74.62    1.48
   3   8  -3    7.34    0.61
   3   8   3    7.77    0.71
  -3  -8   3    6.98    0.60
   3   8   5    1.35    0.59
  -3  -8   5    2.32    0.47
  -3  -8   7   31.15    1.18
   3   8   7   30.85    1.29
  -3  -8   9    3.62    0.56
  -8   3  -9    5.50    0.32
   8  -3  -9    4.98    0.32
   3   8   9    3.26    0.76
  -8   3 -11    0.24    0.29
  -3  -8 -11    0.33    0.30
  -8   3 -11    0.76    0.24
   8  -3 -11    0.75    0.21
  -8   3 -13    0.03    0.20
  -3  -8 -13   -0.23    0.24
  -8   3 -15    5.16    0.22
   3   8 -15    5.10    0.20
   2   8   0   94.37    1.56
  -2  -8   0   92.80    1.55
   2   8   2    3.33    0.55
  -2  -8  -2    3.46    0.40
   2   8  -2    2.01    0.49
  -2  -8   2    3.01    0.44
  -2  -8   4   29.99    1.05
   2   8  -4   30.30    1.10
   2   8   4   31.81    1.17
   2   8   6    3.70    0.65
  -2  -8   6    4.09    0.51
   2   8   8    0.16    0.75
  -2  -8   8    1.44    0.47
  -8   2 -10    1.77    0.26
   8  -2 -10    1.88    0.26
  -8   2 -12    3.57    0.29
  -2  -8 -12    3.43    0.34
  -8   2 -12    4.09    0.32
  -8   2 -14    3.18    0.24
   2   8 -16   -0.10    0.10
  -8   2 -16    0.00    0.12
   1   8  -1   18.01    0.79
   1   8   1   18.87    0.80
  -1  -8   1   17.73    0.75
  -1  -8  -1   18.45    0.71
   1   8  -3   44.82    1.23
  -1  -8   3   46.98    1.19
   1   8   3   46.65    1.29
  -1  -8   5   18.47    0.85
   1   8  -5   15.44    0.86
   1   8   5   18.06    0.97
  -1  -8   7   16.48    0.86
   1   8   7   15.90    0.99
  -8   1  -9   12.51    0.43
   8  -1  -9   11.16    0.42
  -1  -8   9   13.01    0.80
  -8   1 -11    3.69    0.31
   8  -1 -11    3.31    0.29
  -8   1 -13    0.04    0.22
  -8   1 -15    0.54    0.17
   0  -8   0    5.16    0.49
   0   8   0    5.29    0.56
   0   8   2   15.26    0.78
   0   8  -2   14.29    0.76
   0  -8  -2   16.94    0.67
   0  -8   2   16.09    0.72
   0   8   4   21.55    1.00
   0  -8   4   23.13    0.89
   0  -8   6    0.18    0.31
   0   8   6   -0.57    0.58
  -8   0   8   14.68    0.98
   0  -8   8   16.53    0.86
   0   8   8   14.23    1.05
  -8   0 -10    2.36    0.29
   8   0 -10    2.33    0.28
  -8   0 -12   29.66    0.57
  -8   0 -14    0.37    0.21
  -8   0 -16    4.88    0.20
   0   8 -16    4.14    0.17
  -1   8   1   19.58    0.80
   1  -8   1   18.13    0.75
   1  -8  -1   19.32    0.74
  -1   8  -1   18.40    0.79
  -1   8   3   28.45    1.04
  -1   8  -3   26.85    1.00
   1  -8   3   28.59    0.94
  -1   8  -5   27.76    1.08
   1  -8   5   31.57    1.03
  -1   8   5   28.88    1.15
   1  -8   7   34.66    1.14
  -8  -1   7   32.71    1.32
  -1   8   7   34.87    1.32
  -8  -1  -9    6.02    0.31
  -8  -1  -9    6.69    0.36
   8   1  -9    6.09    0.35
  -1   8  -9    5.93    0.29
  -1   8  -9    6.76    0.34
  -8  -1 -11    1.27    0.22
  -8  -1 -11    1.74    0.29
   8   1 -11    1.11    0.25
  -8  -1 -13    2.23    0.27
  -8  -1 -15    0.65    0.19
  -2   8   0   13.89    0.80
   2  -8   0   15.47    0.78
  -2   8   2    1.39    0.46
   2  -8   2    0.41    0.36
  -2   8  -4   22.42    0.96
  -2   8   4   20.90    0.99
   2  -8   4   21.41    0.88
  -2   8   6    1.36    0.58
   2  -8   6    2.11    0.44
  -8  -2   6    2.73    0.55
  -2   8   8   47.45    1.61
  -8  -2  -8   46.39    0.60
   2  -8   8   47.46    1.29
  -8  -2   8   45.56    1.59
  -2   8 -10   14.69    0.42
  -8  -2 -10   15.50    0.49
   8   2 -10   15.77    0.49
  -2   8 -10   15.41    0.44
  -8  -2 -12    1.84    0.28
  -8  -2 -14    1.78    0.25
  -8  -2 -16    0.12    0.13
  -3   8   1   15.90    0.74
  -8  -3  -1   15.15    0.71
   3  -8   1   16.65    0.72
  -3   8  -1   15.54    0.75
  -3   8   3  111.20    1.85
  -3   8  -3  112.72    1.81
   3  -8   3  111.90    1.78
  -8  -3   3  109.99    2.07
  -3   8   5   63.85    1.61
   3  -8   5   66.88    1.42
  -8  -3   5   67.52    1.77
  -3   8   7   -0.11    0.71
   3  -8   7    1.01    0.42
  -8  -3   7    1.28    0.49
  -8  -3  -9    6.31    0.36
   8   3  -9    6.08    0.37
  -8  -3   9    5.27    0.70
  -3   8  -9    6.69    0.33
  -8  -3 -11    0.56    0.26
  -3   8 -11    0.24    0.24
   8   3 -11    0.65    0.25
  -3   8 -11    0.02    0.25
  -8  -3 -13    0.34    0.23
  -8  -3 -15    2.76    0.23
  -8  -4   0   47.55    1.25
  -4   8   0   49.14    1.15
  -4   8   2    6.08    0.57
  -4   8  -2    5.79    0.55
  -8  -4   2    5.10    0.58
  -8  -4  -2    4.46    0.44
  -4   8   4   13.98    0.84
   4  -8   4   15.47    0.72
  -8  -4   4   16.59    0.93
  -4   8  -4   15.03    0.78
  -4   8   6    2.49    0.66
  -8  -4   6    3.10    0.59
  -8  -4  -8   24.35    0.58
  -4   8  -8   24.45    0.50
  -8  -4 -10    1.72    0.29
   8   4 -10    1.65    0.29
  -4   8 -10    1.83    0.26
  -8  -4 -12    0.38    0.26
  -4   8 -12    0.53    0.23
  -8  -4 -16   -0.19    0.13
  -8  -5  -1    0.08    0.33
  -8  -5   1   -0.35    0.43
  -5   8   3   34.36    1.02
  -5   8  -3   33.59    1.01
  -8  -5   3   31.99    1.21
  -5   8   5   31.29    1.21
  -8  -5   5   34.58    1.34
  -8  -5   7   -0.87    0.59
   8   5  -9   25.58    0.61
  -8  -5  -9   25.01    0.61
  -5   8  -9   25.91    0.53
  -5   8 -11    0.74    0.23
  -8  -5 -11    1.04    0.28
  -5   8 -11    0.61    0.25
   8   5 -11    0.60    0.26
  -8  -5 -13    1.55    0.26
  -8  -5 -15    1.36    0.19
  -6   8   0   22.81    0.79
  -8  -6   0   21.51    0.94
  -6   8   2   21.96    0.79
  -6   8  -2   21.28    0.78
  -8  -6   2   20.73    1.04
  -8  -6   6    0.24    0.61
   8   6  -8   15.36    0.37
  -8  -6  -8   15.98    0.52
  -8  -6 -10    6.45    0.39
   8   6 -10    6.31    0.27
   8   6 -10    5.92    0.37
  -6   8 -10    6.80    0.33
  -8  -6 -12    4.34    0.35
  -8  -6 -14    4.65    0.26
  -8  -7   1   43.50    1.39
  -8  -7  -1   40.85    1.17
  -8  -7   3    3.73    0.65
  -8  -7   5   15.18    1.03
   8   7  -7    2.30    0.24
   7  -8   7    1.94    0.24
   7  -8  -7    2.40    0.28
  -8  -7  -9   17.63    0.56
   8   7  -9   17.48    0.40
  -8  -7 -11   12.22    0.47
   8   7 -11   11.88    0.31
   8   7 -11   11.29    0.43
  -8  -7 -13    0.45    0.21
  -8  -7 -15    0.19    0.13
  -8  -8   0   21.66    0.96
  -8  -8   2    3.23    0.61
  -8  -8   4   12.63    0.94
   8  -8   4   13.53    0.41
   8  -8  -4   14.18    0.44
   8   8  -6    3.67    0.26
   8  -8  -6    3.40    0.31
   8  -8   6    2.70    0.27
   8   8  -8    0.21    0.20
   8  -8  -8    0.66    0.24
  -8  -8 -10    7.47    0.42
   8   8 -10    8.24    0.30
  -8  -8 -12   -0.42    0.25
  -8  -8 -14    7.81    0.26
   9  -8   1    1.62    0.25
   9  -8  -1    1.36    0.24
  -8  -9   1    1.27    0.51
   9  -8   3    0.61    0.24
  -8  -9   3    0.50    0.53
   9  -8  -3    1.20    0.26
   9  -8  -5    3.96    0.31
   9  -8  -5    4.54    0.32
   9  -8   5    4.10    0.30
   9  -8   7    0.44    0.22
   8   9  -7    0.77    0.21
   9  -8  -7    0.76    0.25
  -8  -9  -9   10.49    0.46
   8   9  -9   11.00    0.34
  -8  -9 -11   -0.15    0.25
   8   9 -11    0.16    0.20
  -8  -9 -13    1.80    0.20
  -7  -9   0    0.22    0.38
  -7  -9   2   35.60    1.34
  -7  -9   4   10.89    0.89
   9  -7   4   10.89    0.37
   7   9  -4   11.81    0.35
   9  -7  -4   11.60    0.41
   9  -7  -6    4.85    0.33
   7   9  -6    5.30    0.29
   9  -7   6    4.55    0.29
   9  -7   8    1.01    0.22
   7   9  -8    1.48    0.23
   9  -7  -8    1.29    0.26
   9  -7 -10   11.28    0.39
   7   9 -10   11.80    0.34
  -7  -9 -12   -0.18    0.23
   7   9 -12    0.32    0.16
  -7  -9 -14   -0.04    0.14
   6   9  -1    8.08    0.65
  -6  -9   1    7.90    0.70
  -6  -9  -1    7.50    0.60
   6   9   1    6.28    0.60
   6   9   3    3.90    0.58
   6   9  -3    2.15    0.48
  -6  -9   3    3.48    0.61
  -6  -9  -5    2.41    0.28
   6   9  -5    2.29    0.24
   9  -6  -5    2.37    0.27
  -6  -9   5    1.91    0.56
   9  -6   7    3.18    0.26
   6   9  -7    3.70    0.28
   6   9  -9    0.05    0.21
   9  -6  -9   -0.14    0.23
  -9   6 -11    3.07    0.26
   9  -6 -11    3.91    0.27
  -6  -9 -11    3.19    0.36
   6   9 -11    3.61    0.26
  -6  -9 -13    7.95    0.35
   6   9 -13    7.99    0.23
  -9   6 -13    8.18    0.25
   5   9   0   -0.77    0.50
  -5  -9   0   -0.48    0.40
   5   9   2   41.75    1.15
   5   9  -2   41.27    1.17
  -5  -9   2   38.95    1.29
   5   9   4    1.38    0.58
  -5  -9   4    0.53    0.46
   5   9  -4   -0.47    0.56
  -5  -9   6    0.27    0.45
  -5  -9  -6   -0.09    0.25
   9  -5  -6   -0.46    0.25
   5   9  -8    0.61    0.25
   9  -5  -8    1.31    0.25
   5   9 -10   20.70    0.46
   9  -5 -10   19.18    0.48
  -5  -9 -12    1.85    0.31
   5   9 -12    1.81    0.23
  -9   5 -12    1.77    0.22
  -5  -9 -14   -0.23    0.18
   5   9 -14   -0.10    0.13
  -9   5 -14    0.14    0.13
   4   9   1   50.39    1.25
   4   9  -1   51.11    1.31
  -4  -9   1   50.55    1.32
  -4  -9  -1   52.93    1.27
   4   9   3    7.21    0.68
   4   9  -3    5.28    0.60
  -4  -9   3    6.09    0.64
   4   9   5    6.23    0.81
  -4  -9   5    6.48    0.68
   4   9   7   -0.02    0.75
   4   9  -7    0.34    0.23
  -4  -9  -7    0.55    0.26
   9  -4  -7    0.38    0.25
  -4  -9   7    0.98    0.45
   9  -4  -9    1.96    0.25
  -9   4 -11   18.95    0.57
  -4  -9 -11   18.07    0.60
   4   9 -11   18.49    0.44
   9  -4 -11   18.00    0.45
  -9   4 -11   18.77    0.45
  -9   4 -13    8.15    0.28
  -4  -9 -13    7.73    0.36
   4   9 -13    8.38    0.28
   4   9 -15    2.51    0.13
  -9   4 -15    2.48    0.15
   3   9   0   -0.15    0.48
  -3  -9   0   -0.32    0.40
   3   9   2   25.55    0.96
   3   9  -2   25.56    0.98
  -3  -9   2   23.63    0.97
  -3  -9  -2   24.03    0.85
   3   9   4    0.18    0.57
   3   9  -4   -0.78    0.52
  -3  -9   4   -0.06    0.40
   3   9   6   18.18    1.12
  -3  -9   6   18.19    0.94
   3   9   8    5.10    0.90
  -3  -9  -8    7.07    0.39
  -3  -9   8    5.54    0.65
   9  -3  -8    6.71    0.37
  -9   3 -10    0.04    0.22
   9  -3 -10   -0.09    0.21
  -9   3 -12    4.56    0.28
  -3  -9 -12    4.33    0.35
   9  -3 -12    4.54    0.27
  -9   3 -14    0.17    0.15
   3   9 -14    0.00    0.16
   2   9   1    4.24    0.59
   2   9  -1    2.91    0.57
  -2  -9   1    3.14    0.52
  -2  -9  -1    3.58    0.49
   2   9  -3   11.13    0.75
  -2  -9   3   11.08    0.71
   2   9   3   10.92    0.77
   2   9   5   25.29    1.18
   2   9  -5   22.42    1.04
  -2  -9   5   25.29    1.05
   2   9   7   14.22    1.11
  -2  -9   7   14.20    0.88
   9  -2  -9    6.43    0.37
  -9   2 -11   21.18    0.56
   9  -2 -11   20.07    0.50
  -9   2 -11   20.82    0.50
  -9   2 -13   13.34    0.37
  -9   2 -15    4.57    0.20
   2   9 -15    4.29    0.18
   1   9   0    0.36    0.46
  -1  -9   0   -0.29    0.37
   1   9  -2    1.77    0.52
  -1  -9  -2    2.10    0.40
   1   9   2    3.15    0.55
  -1  -9   2    2.29    0.45
   1   9   4   26.12    1.12
  -1  -9   4   24.81    0.98
   1   9  -4   24.35    1.04
   1   9   6    7.33    0.89
  -1  -9   6    9.10    0.71
   1   9   8    5.69    0.93
  -9   1  -8    9.67    0.41
  -1  -9  -8    7.54    0.41
  -9   1   8    8.08    0.79
   9  -1  -8   10.40    0.41
  -1  -9   8    9.16    0.72
   9  -1 -10    0.06    0.23
  -9   1 -10   -0.35    0.26
  -9   1 -12    3.97    0.29
   9  -1 -12    3.56    0.27
  -9   1 -14    0.02    0.17
  -9   1 -16    1.53    0.12
   1   9 -16    1.70    0.11
   0  -9  -1    0.90    0.36
   0   9   1    0.73    0.48
   0   9  -1   -0.12    0.53
   0  -9   1   -0.09    0.44
   0   9   3    0.33    0.51
   0   9  -3    0.59    0.46
   0  -9   3   -0.43    0.42
   0   9   5    0.37    0.61
   0   9  -5    0.26    0.49
   0  -9   5    0.77    0.38
   0  -9   7   45.05    1.35
   0   9   7   45.53    1.63
  -9   0  -9   26.66    0.60
   9   0  -9   26.38    0.59
  -9   0 -11   16.39    0.45
   9   0 -11   17.25    0.50
  -9   0 -13   11.13    0.38
  -9   0 -15    6.54    0.24
   0   9 -15    5.72    0.20
  -1   9   0    0.69    0.49
   1  -9   0   -0.17    0.39
  -1   9  -2    0.54    0.52
   1  -9   2    1.35    0.41
  -1   9   4   15.31    0.92
   1  -9   4   16.03    0.81
  -1   9  -4   14.77    0.86
   1  -9   6    1.00    0.43
  -1   9   6    0.61    0.70
  -9  -1   6    1.35    0.49
  -9  -1  -8    1.72    0.28
   1  -9   8    1.09    0.43
  -9  -1   8    1.15    0.51
   9   1  -8    0.94    0.27
  -9  -1 -10    0.32    0.25
   9   1 -10    0.19    0.22
   9   1 -12   15.53    0.45
  -9  -1 -14    1.90    0.22
  -9  -1 -16    0.74    0.12
  -1   9 -16    0.40    0.10
  -2   9   1    0.65    0.52
  -2   9  -1    0.39    0.53
  -2   9   3   23.26    0.98
   2  -9   3   21.50    0.90
  -2   9  -3   24.68    1.01
  -2   9   5    6.94    0.80
  -2   9  -5    6.81    0.69
  -9  -2   5    7.52    0.75
   2  -9   5    7.61    0.64
  -2   9   7   28.19    1.36
  -9  -2   7   29.64    1.35
   2  -9   7   29.81    1.09
  -9  -2  -9    4.23    0.33
   9   2  -9    4.08    0.34
  -9  -2 -11    7.45    0.39
   9   2 -11    6.89    0.37
  -9  -2 -13   12.07    0.40
  -9  -2 -15    6.51    0.25
  -9  -3   0   -0.36    0.43
  -3   9  -2    1.93    0.50
   3  -9   2    1.20    0.40
  -9  -3   2    1.45    0.48
  -9  -3  -2    1.38    0.36
  -3   9   2    1.27    0.51
  -3   9   4    4.54    0.68
  -3   9  -4    4.26    0.60
   3  -9   4    4.64    0.55
  -9  -3   4    5.08    0.66
  -3   9   6    4.75    0.79
   3  -9   6    4.86    0.57
  -9  -3   6    5.83    0.71
   9   3  -8    4.45    0.34
  -9  -3  -8    4.65    0.34
  -9  -3   8    4.56    0.67
  -9  -3 -10    2.64    0.30
   9   3 -10    2.71    0.31
  -3   9 -10    2.06    0.25
  -9  -3 -12    0.83    0.26
   9   3 -12    0.58    0.23
  -9  -3 -14   -0.10    0.21
  -4   9   1   -0.44    0.55
  -4   9  -1   -1.00    0.62
  -9  -4   1    1.38    0.46
  -9  -4  -1    1.62    0.38
  -4   9   3   20.28    0.90
  -4   9  -3   18.83    0.88
  -9  -4   3   19.74    1.03
  -4   9   5    7.43    0.81
  -9  -4   5    6.67    0.75
  -9  -4  -7    8.94    0.40
  -9  -4   7    7.77    0.82
  -9  -4  -9    5.50    0.35
   9   4  -9    5.85    0.37
  -9  -4 -11   30.22    0.65
   9   4 -11   30.25    0.64
  -9  -4 -13   14.52    0.42
  -9  -4 -15    4.81    0.22
  -5   9   0   -0.72    0.49
  -9  -5   0   -0.36    0.39
  -5   9   2   13.41    0.73
  -5   9  -2   13.92    0.74
  -9  -5   2   13.81    0.87
  -9  -5   4   -0.13    0.50
  -5   9   4   -1.02    0.61
  -5   9  -4   -0.59    0.53
  -5   9   6   14.82    1.03
  -9  -5   6   13.31    0.99
  -9  -5  -8    6.84    0.38
  -9  -5 -10    6.69    0.38
   9   5 -10    6.37    0.39
  -9  -5 -12    6.24    0.35
   9   5 -12    6.08    0.31
  -9  -5 -14   -0.29    0.19
  -9  -6   1   -0.03    0.49
  -6   9   1    0.22    0.50
  -6   9  -1    1.17    0.51
  -9  -6   3    1.70    0.55
  -9  -6   5    1.37    0.59
  -9  -6  -7   27.94    0.63
   9   6  -7   27.73    0.46
  -9  -6  -9    2.30    0.30
   9   6  -9    2.35    0.30
  -9  -6 -11    4.68    0.35
   9   6 -11    4.35    0.34
  -9  -6 -13    0.99    0.22
  -9  -6 -15    7.59    0.21
  -9  -7   0   -0.05    0.41
  -9  -7   2   28.53    1.25
  -9  -7   4   -0.63    0.58
   7  -9   4   -0.36    0.25
   7  -9  -4   -0.08    0.25
   7  -9  -6    7.49    0.35
   7  -9   6    7.17    0.33
  -9  -7  -8    4.13    0.35
  -9  -7 -10   15.61    0.51
   9   7 -10   15.37    0.50
  -9  -7 -12    9.93    0.37
  -9  -7 -14    0.11    0.15
   8  -9   1    3.48    0.28
   8  -9  -1    3.09    0.26
  -9  -8   1    3.19    0.56
   8  -9   3    6.39    0.34
   8  -9  -3    6.38    0.34
   8  -9   5    0.36    0.24
   8  -9  -5    0.40    0.23
   8  -9   7    5.80    0.30
  -9  -8  -9    5.42    0.37
  -9  -8 -11    3.47    0.30
   9   8 -11    3.24    0.27
  -9  -8 -13    0.15    0.16
  -9  -9   2   21.86    1.13
   9  -9  -2   22.61    0.47
   9  -9   2   23.76    0.53
   9  -9  -2   22.90    0.54
   9  -9  -4    0.19    0.24
   9  -9   4    0.11    0.23
   9  -9   6   19.86    0.47
   9  -9  -6   19.65    0.50
   9  -9   8   -0.01    0.20
  -9  -9  -8    0.11    0.27
  -9  -9 -10    0.82    0.25
   9   9 -10    0.45    0.23
  -9  -9 -12   -0.11    0.18
  10  -9  -1    0.15    0.21
  10  -9   1    0.27    0.23
  10  -9  -3    5.27    0.29
  10  -9   3    5.50    0.33
  10  -9  -3    5.80    0.34
  10  -9  -5   -0.09    0.26
  10  -9   5   -0.03    0.24
  10  -9   7    3.26    0.26
  -9 -10  -9   -0.26    0.25
  -9 -10 -11    6.23    0.29
   9  10 -11    5.25    0.24
  -9 -10 -13    0.08    0.10
  10  -8   0   -0.17    0.23
  10  -8  -2    3.96    0.28
  10  -8   2    4.06    0.30
  -8 -10   2    3.14    0.65
  10  -8   4    0.00    0.23
  10  -8  -4    0.10    0.22
  10  -8  -4    0.14    0.24
  10  -8   6    0.76    0.23
  10  -8  -6    1.38    0.26
  10  -8   8    4.29    0.27
  10  -8  -8    5.55    0.32
  -8 -10 -10   25.41    0.59
   8  10 -10   25.18    0.52
  -8 -10 -12    0.32    0.19
  10  -7  -1   15.85    0.41
  10  -7  -1   14.53    0.41
  10  -7   1   15.47    0.41
  10  -7   3   19.68    0.46
  -7 -10  -3   19.47    0.54
  10  -7  -3   20.19    0.49
  10  -7   5    6.56    0.32
  10  -7  -5    6.61    0.36
  10  -7  -5    5.98    0.33
   7  10  -5    6.22    0.30
  10  -7   7    1.49    0.24
   7  10  -7    2.33    0.24
  10  -7  -7    2.02    0.28
   7  10  -9   -0.05    0.20
  10  -7  -9    0.05    0.23
  -7 -10 -11   11.96    0.43
   7  10 -11   12.59    0.30
  -7 -10 -13    1.96    0.19
   6  10   0    2.51    0.52
  -6 -10   0    3.18    0.52
  -6 -10   2    6.23    0.71
  -6 -10   4    8.18    0.79
  -6 -10  -4    8.82    0.41
   6  10  -4    8.52    0.31
  10  -6  -4    9.33    0.37
  10  -6   6   11.23    0.36
   6  10  -6   11.06    0.36
  10  -6  -6   12.01    0.41
  10  -6   8    0.96    0.21
   6  10  -8    1.24    0.23
  10  -6  -8    1.06    0.25
   6  10 -10   24.88    0.46
  10  -6 -10   25.04    0.52
  -6 -10 -12    0.69    0.24
   6  10 -12    1.14    0.16
  -6 -10 -14    3.44    0.16
  -6 -10 -14    3.54    0.18
   5  10   1   32.94    1.09
   5  10  -1   36.35    1.15
  -5 -10   1   33.68    1.21
  -5 -10  -1   33.22    1.10
   5  10   3    3.16    0.60
   5  10  -3    2.21    0.55
  -5 -10   3    2.27    0.54
   5  10   5   29.50    1.17
  -5 -10   5   27.95    1.22
   5  10  -5   29.03    0.48
  -5 -10  -5   28.68    0.63
  10  -5  -5   29.72    0.59
   5  10  -7   12.46    0.38
  10  -5  -7   12.21    0.42
   5  10  -9    0.48    0.22
  10  -5  -9    0.63    0.23
  -5 -10 -11   16.59    0.55
   5  10 -11   17.72    0.39
  10  -5 -11   16.78    0.43
  -5 -10 -13   -0.25    0.21
   5  10 -13   -0.11    0.14
   4  10   0   10.65    0.76
  -4 -10   0   12.53    0.76
  -4 -10   2    0.21    0.45
   4  10  -2   -0.09    0.52
   4  10   2    0.68    0.52
   4  10  -4   11.50    0.82
  -4 -10   4   11.38    0.83
  -4 -10   6   -0.01    0.44
   4  10   6    0.46    0.66
   4  10  -6   -0.34    0.24
  -4 -10  -6   -0.03    0.26
  10  -4  -6    0.12    0.24
   4  10  -8    2.88    0.29
  10  -4  -8    2.94    0.30
   4  10 -10   13.88    0.40
  10  -4 -10   14.46    0.42
  -4 -10 -12    0.13    0.25
   4  10 -12    0.14    0.20
  10  -4 -12    0.69    0.20
 -10   4 -12    0.54    0.19
  -4 -10 -14    1.86    0.16
   4  10 -14    1.98    0.14
 -10   4 -14    2.05    0.14
   3  10   1  100.86    1.83
   3  10  -1  102.19    1.90
  -3 -10   1   99.49    1.92
  -3 -10  -1  100.88    1.79
   3  10   3   30.17    1.12
   3  10  -3   27.95    1.10
  -3 -10   3   27.77    1.13
   3  10   5   40.32    1.42
   3  10  -5   39.78    1.38
  -3 -10   5   41.42    1.39
   3  10   7    0.40    0.76
  -3 -10   7    0.61    0.45
   3  10  -7    0.49    0.23
  -3 -10  -7    0.24    0.27
  10  -3  -7    0.58    0.27
  10  -3  -9    0.04    0.22
 -10   3 -11    1.90    0.24
   3  10 -11    1.44    0.23
 -10   3 -13    0.40    0.16
  -3 -10 -13    0.25    0.19
   3  10 -13    0.12    0.17
   3  10 -15    1.91    0.11
   2  10   0   88.56    1.70
  -2 -10   0   85.67    1.71
   2  10   2    1.83    0.57
   2  10  -2    3.51    0.56
  -2 -10  -2    2.09    0.44
  -2 -10   2    2.36    0.51
   2  10   4    1.80    0.61
   2  10  -4    1.23    0.53
  -2 -10   4    0.85    0.46
   2  10   6   18.36    1.18
  -2 -10  -6   20.73    0.54
  10  -2  -6   22.21    0.53
  -2 -10   6   18.28    0.99
  -2 -10  -8   -0.20    0.28
  10  -2  -8   -0.08    0.26
 -10   2 -10    4.59    0.31
 -10   2 -10    3.94    0.34
  10  -2 -10    5.05    0.33
 -10   2 -12   -0.06    0.20
  -2 -10 -12    0.10    0.23
  10  -2 -12    0.28    0.19
 -10   2 -14   -0.10    0.14
  -1 -10   1   92.52    1.80
   1  10   1   91.07    1.71
   1  10  -1   94.79    1.81
  -1 -10  -1   95.54    1.72
   1  10   3   24.64    1.03
   1  10  -3   24.17    1.06
  -1 -10   3   23.67    1.00
   1  10   5   34.65    1.39
  -1 -10   5   33.35    1.21
 -10   1  -7   15.51    0.48
  -1 -10  -7   14.48    0.50
  10  -1  -7   14.58    0.47
  -1 -10   7   13.87    0.87
  -1 -10  -9    3.79    0.34
  10  -1  -9    4.44    0.33
 -10   1 -11    3.65    0.29
  10  -1 -11    3.71    0.30
 -10   1 -13   -0.34    0.19
 -10   1 -15    0.23    0.12
   1  10 -15    0.34    0.11
   0  10   0   55.72    1.43
   0 -10   0   48.96    1.35
   0 -10   2    0.03    0.42
   0  10   2   -0.06    0.53
   0  10  -2   -0.38    0.59
   0 -10  -2   -0.43    0.40
   0  10   4   22.07    1.10
   0 -10   4   19.82    0.99
   0  10  -4   21.31    1.10
   0  10   6   18.64    1.17
   0 -10   6   19.17    0.96
 -10   0  -8    0.68    0.27
  10   0  -8    0.90    0.27
   0 -10  -8    0.27    0.26
  10   0 -10    6.45    0.37
 -10   0 -12    3.54    0.27
  10   0 -12    3.54    0.27
 -10   0 -14    0.25    0.15
   0  10 -14   -0.12    0.15
  -1  10   1   99.00    1.77
  -1  10  -1  100.22    1.86
   1 -10   1  100.56    1.83
   1 -10  -1   98.59    1.74
  -1  10   3   26.68    1.05
  -1  10  -3   25.62    1.09
   1 -10   3   23.47    0.99
  -1  10  -5   18.39    1.02
   1 -10   5   20.38    0.97
  -1  10   7   38.03    1.60
   1 -10   7   36.88    1.28
 -10  -1  -7   43.71    0.72
   1 -10  -7   39.70    0.74
 -10  -1   7   38.24    1.54
  10   1  -7   41.57    0.76
 -10  -1  -9    0.32    0.25
  10   1  -9    0.68    0.24
 -10  -1 -11    1.21    0.25
  10   1 -11    0.40    0.26
 -10  -1 -13    0.52    0.20
 -10  -1 -15   -0.03    0.12
  -2  10   0    8.73    0.72
   2 -10   0    6.99    0.63
  -2  10   2    2.25    0.55
  -2  10  -2    3.65    0.56
   2 -10   2    3.01    0.50
  -2  10   4   17.92    0.96
  -2  10  -4   17.76    0.98
   2 -10   4   17.27    0.88
 -10  -2   4   19.17    1.07
  -2  10   6    5.38    0.85
   2 -10   6    6.14    0.63
 -10  -2   6    6.19    0.76
  10   2  -6    6.24    0.37
 -10  -2  -8   -0.32    0.26
  10   2  -8   -0.13    0.27
 -10  -2 -10   20.56    0.54
  10   2 -10   20.43    0.55
  10   2 -12   -0.17    0.23
 -10  -2 -14    1.04    0.18
  -3  10   1   49.24    1.30
  -3  10  -1   49.85    1.35
 -10  -3   1   48.33    1.46
 -10  -3  -1   46.08    1.29
  -3  10   3   37.84    1.20
  -3  10  -3   38.38    1.26
   3 -10   3   36.01    1.16
 -10  -3   3   38.98    1.44
  -3  10   5   13.09    0.94
   3 -10   5   11.76    0.76
 -10  -3   5   12.72    0.95
  -3  10   7   12.86    1.11
 -10  -3  -7   17.05    0.49
   3 -10   7   15.07    0.82
 -10  -3   7   13.47    1.00
  10   3  -7   16.09    0.51
 -10  -3  -9    0.96    0.26
  10   3  -9    0.92    0.27
 -10  -3 -11    1.12    0.27
  10   3 -11    0.85    0.26
 -10  -3 -13    1.68    0.23
 -10  -3 -15    2.73    0.16
  -3  10 -15    2.33    0.13
  -4  10   0   37.00    1.15
 -10  -4   0   34.08    1.20
  -4  10   2   -0.54    0.53
  -4  10  -2    0.68    0.47
 -10  -4   2    0.28    0.42
  -4  10   4    2.54    0.60
  -4  10  -4    0.75    0.52
 -10  -4   4    1.56    0.56
 -10  -4   6    3.54    0.62
  -4  10   6    4.32    0.79
 -10  -4  -6    4.24    0.34
 -10  -4  -8    2.37    0.33
  10   4  -8    2.49    0.33
 -10  -4 -10    3.22    0.32
  10   4 -10    3.18    0.32
 -10  -4 -12    1.07    0.24
  10   4 -12    0.66    0.22
 -10  -4 -14    2.14    0.20
  -5  10   1    8.09    0.67
  -5  10  -1   10.42    0.72
 -10  -5   1    8.59    0.74
  -5  10   3   18.74    0.90
  -5  10  -3   18.83    0.93
 -10  -5   3   18.98    1.09
 -10  -5   5    2.90    0.63
 -10  -5  -5    3.15    0.32
   5 -10  -5    3.25    0.28
 -10  -5  -7   24.49    0.59
 -10  -5  -9    4.84    0.34
  10   5  -9    5.00    0.36
 -10  -5 -11    1.56    0.27
  10   5 -11    1.62    0.27
 -10  -5 -13    3.62    0.24
 -10  -6   0   14.67    0.89
 -10  -6   2    8.96    0.82
   6 -10  -4   -0.16    0.22
 -10  -6   4   -0.11    0.49
   6 -10   4    0.04    0.23
   6 -10  -4   -0.30    0.25
 -10  -6  -6   21.05    0.56
 -10  -6  -8    1.31    0.28
  10   6  -8    1.46    0.27
 -10  -6 -10    8.55    0.40
  10   6 -10    8.87    0.42
 -10  -6 -12    1.63    0.23
  10   6 -12    1.17    0.19
 -10  -6 -14    1.06    0.16
   7 -10   1   19.42    0.46
   7 -10  -1   18.42    0.49
   7 -10   3   45.66    0.68
   7 -10  -3   45.88    0.73
   7 -10   3   47.69    0.70
   7 -10   5    1.18    0.24
   7 -10  -5    1.33    0.25
 -10  -7  -7    1.09    0.28
 -10  -7  -9    4.91    0.34
  10   7  -9    5.31    0.35
 -10  -7 -11    0.54    0.23
  10   7 -11    0.37    0.21
 -10  -7 -13   -0.13    0.15
   8 -10   0   26.53    0.53
   8 -10   0   27.05    0.58
   8 -10   2    5.48    0.32
   8 -10  -2    5.34    0.35
   8 -10   4    1.58    0.25
   8 -10   4    1.56    0.25
   8 -10  -4    1.62    0.26
   8 -10   6   35.77    0.60
   8 -10  -6   35.77    0.63
 -10  -8  -8    0.24    0.25
 -10  -8 -10    4.99    0.31
  10   8 -10    4.33    0.31
 -10  -8 -12    0.20    0.17
   9 -10  -1   -0.14    0.22
   9 -10   1   -0.09    0.22
   9 -10  -1   -0.30    0.26
   9 -10   3    4.65    0.31
   9 -10  -3    5.08    0.35
   9 -10   5    1.73    0.26
   9 -10   5    1.94    0.26
   9 -10  -5    1.95    0.27
 -10  -9  -7    2.06    0.29
 -10  -9  -9    7.72    0.36
  10   9  -9    7.63    0.36
 -10  -9 -11    0.16    0.18
  10   9 -11   -0.21    0.18
 -10  -9 -13    0.12    0.10
  10 -10   0    0.61    0.23
  10 -10   0    0.72    0.25
  10 -10   2   -0.24    0.25
  10 -10  -2   -0.09    0.26
  10 -10   4    0.51    0.23
  10 -10  -4    0.65    0.24
  10 -10   6   14.57    0.42
  10 -10  -6   15.23    0.43
  10 -10   6   14.62    0.41
 -10 -10  -8    0.77    0.24
 -10 -10 -10   16.09    0.40
  10  10 -10   16.14    0.39
 -10 -10 -12    0.08    0.12
  11 -10  -1    1.52    0.23
  11 -10   1    1.17    0.24
  11 -10  -1    1.52    0.26
  11 -10   3   -0.06    0.22
  11 -10  -3    0.11    0.24
  11 -10   5    5.34    0.30
  11 -10  -5    5.42    0.32
  11 -10   5    5.40    0.30
 -10 -11  -7   -0.16    0.23
 -10 -11  -9    2.86    0.23
  10  11  -9    2.61    0.22
 -10 -11 -11    1.65    0.15
  11  -9   0   -0.20    0.23
  11  -9  -2   16.88    0.43
  11  -9   2   17.63    0.47
  11  -9  -2   17.10    0.49
  11  -9   4    2.82    0.28
  11  -9  -4    2.97    0.30
  11  -9   6   35.24    0.59
  11  -9  -6   36.68    0.61
  -9 -11 -10   -0.02    0.18
   9  11 -10   -0.29    0.18
  -9 -11 -12    0.52    0.12
  11  -8  -1   -0.08    0.21
  11  -8   1   -0.42    0.24
  11  -8   3    2.60    0.28
  11  -8  -3    3.21    0.29
  11  -8   5    9.90    0.38
  11  -8  -5   10.18    0.40
  11  -8  -5   10.12    0.39
  11  -8   7    0.70    0.23
  11  -8  -7    1.20    0.26
  -8 -11  -9   12.72    0.44
  -8 -11 -11    0.11    0.18
  11  -7   0    0.24    0.22
  11  -7  -2   27.82    0.52
  11  -7   2   28.15    0.54
  -7 -11  -2   28.92    0.63
  11  -7  -2   27.52    0.54
  11  -7   4    0.23    0.21
  11  -7  -4    0.23    0.23
  11  -7   6    9.10    0.35
  11  -7  -6    9.55    0.40
   7  11  -8    9.55    0.32
  11  -7  -8    9.68    0.39
  11  -7   8    9.18    0.33
  -7 -11 -10    4.24    0.32
  -7 -11 -12    0.29    0.17
  -6 -11   1    0.48    0.44
  11  -6  -1    0.03    0.20
  11  -6  -1   -0.08    0.22
  -6 -11  -1   -0.34    0.26
  11  -6  -3    1.02    0.25
  -6 -11  -3    1.05    0.27
   6  11  -5   11.30    0.34
  -6 -11  -5   11.62    0.46
  11  -6  -5   12.23    0.42
  11  -6   7   16.39    0.41
   6  11  -7   17.54    0.40
  11  -6  -7   16.84    0.48
   6  11  -9    4.47    0.26
  11  -6  -9    4.38    0.31
  -6 -11 -11    0.40    0.24
   6  11 -11    0.84    0.17
  -6 -11 -13    2.66    0.19
  -5 -11   0   -0.63    0.48
   5  11   2   26.64    1.06
   5  11  -2   26.39    1.07
  -5 -11  -2   28.04    0.60
  -5 -11   2   26.17    1.17
  11  -5  -2   27.69    0.52
   5  11   4    2.24    0.60
  -5 -11   4    1.60    0.54
   5  11  -4    1.58    0.22
  11  -5  -4    2.16    0.27
  -5 -11  -4    1.19    0.28
  -5 -11  -6    1.67    0.28
   5  11  -6    1.34    0.23
  11  -5  -6    1.57    0.26
  11  -5   8    1.24    0.21
   5  11  -8    0.96    0.22
  11  -5  -8    1.36    0.25
   5  11 -10    2.39    0.23
  11  -5 -10    1.94    0.26
  -5 -11 -12    3.42    0.28
   5  11 -12    4.38    0.20
   4  11   1    1.39    0.54
   4  11  -1    2.63    0.56
  -4 -11   1    1.79    0.50
   4  11   3    1.73    0.60
   4  11  -3    1.30    0.55
  -4 -11   3    1.29    0.51
   4  11  -3    1.11    0.20
  11  -4  -3    1.37    0.24
  -4 -11  -3    1.35    0.25
   4  11  -5   27.38    0.47
  -4 -11  -5   27.74    0.63
  11  -4  -5   28.97    0.60
  -4 -11  -7   10.32    0.45
   4  11  -7   10.86    0.35
  11  -4  -7   10.50    0.42
   4  11  -9    7.73    0.32
  11  -4  -9    8.60    0.36
  -4 -11 -11    6.98    0.41
   4  11 -11    8.17    0.30
  11  -4 -11    7.17    0.33
  -4 -11 -13    4.71    0.24
   4  11 -13    5.50    0.19
   3  11   0   -0.59    0.57
  -3 -11   0   -0.29    0.43
   3  11   2    4.95    0.67
   3  11  -2    5.47    0.68
  -3 -11   2    4.89    0.63
   3  11   4    3.45    0.67
   3  11  -4    1.76    0.58
  -3 -11   4    2.70    0.56
   3  11  -4    2.96    0.23
  -3 -11  -4    3.19    0.30
  11  -3  -4    3.34    0.29
   3  11  -6    5.64    0.29
  -3 -11  -6    5.68    0.37
  11  -3  -6    6.57    0.36
  -3 -11  -8    0.43    0.26
   3  11  -8    0.34    0.22
  11  -3  -8    0.67    0.25
   3  11 -10   -0.29    0.22
  11  -3 -10    0.41    0.22
  -3 -11 -12    1.08    0.23
   3  11 -12    0.89    0.18
  11  -3 -12    1.35    0.21
   3  11 -14    0.62    0.11
   2  11   1    2.15    0.60
   2  11  -1    0.75    0.59
  -2 -11  -1    2.12    0.49
  -2 -11   1    1.36    0.50
   2  11   3    0.56    0.55
   2  11  -3    1.04    0.51
  -2 -11   3    0.74    0.45
   2  11   5   17.11    1.05
   2  11  -5   16.26    1.04
   2  11  -5   17.78    0.38
  -2 -11  -5   19.26    0.53
  11  -2  -5   19.05    0.51
  -2 -11   5   18.57    0.98
   2  11  -7   -0.20    0.22
  -2 -11  -7   -0.21    0.27
  11  -2  -7   -0.45    0.29
   2  11  -9    0.60    0.22
  11  -2  -9    1.15    0.26
 -11   2 -11   18.77    0.42
   2  11 -11   18.63    0.41
  11  -2 -11   18.82    0.46
 -11   2 -13   12.68    0.28
  11  -2 -13   12.21    0.29
   1  11   0   -0.06    0.53
  -1 -11   0    0.22    0.42
   1  11   2    3.82    0.62
  -1 -11   2    3.07    0.55
   1  11  -2    3.58    0.61
  -1 -11  -2    3.32    0.46
   1  11   4    4.93    0.73
   1  11  -4    3.62    0.66
  -1 -11   4    2.97    0.55
   1  11   6    2.56    0.80
   1  11  -6    2.62    0.26
  -1 -11  -6    2.36    0.32
  11  -1  -6    2.65    0.32
  -1 -11   6    1.95    0.55
  -1 -11  -8    8.03    0.41
  11  -1  -8    7.51    0.39
 -11   1 -10    2.87    0.27
  11  -1 -10    2.86    0.30
 -11   1 -12   -0.08    0.18
  11  -1 -12    0.08    0.18
 -11   1 -14    0.04    0.12
   1  11 -14    0.03    0.11
   0 -11  -1    1.35    0.43
   0  11   1    1.52    0.56
   0  11  -1    0.93    0.57
   0 -11   1    2.06    0.50
   0  11   3    3.65    0.64
   0  11  -3    2.90    0.61
   0 -11   3    2.80    0.55
   0  11   5    1.17    0.67
   0 -11   5    0.07    0.45
  11   0  -5    0.53    0.25
   0 -11  -5    0.65    0.26
 -11   0  -7    1.79    0.29
   0 -11  -7    1.95    0.30
  11   0  -7    1.89    0.29
   0 -11  -9    6.15    0.38
  11   0  -9    6.25    0.36
 -11   0 -11   19.63    0.45
  11   0 -11   19.84    0.50
 -11   0 -13   11.75    0.30
   0  11 -13   11.68    0.29
  11   0 -13   11.73    0.30
   0  11 -15    6.38    0.14
  -1  11   0   -0.29    0.54
   1 -11   0   -0.09    0.40
  -1  11  -2    2.09    0.58
  -1  11   2    1.69    0.58
   1 -11   2    1.87    0.49
   1 -11   4    0.04    0.40
  -1  11   4    0.65    0.58
  -1  11  -4   -0.75    0.63
  -1  11   6    2.65    0.78
 -11  -1  -6    1.19    0.32
   1 -11   6    1.17    0.48
   1 -11  -6    1.69    0.30
  11   1  -6    1.38    0.31
 -11  -1   6    1.01    0.55
 -11  -1  -8    8.66    0.40
   1 -11  -8    7.77    0.41
  11   1  -8    7.68    0.39
 -11  -1 -12    0.04    0.19
  11   1 -12    0.06    0.19
 -11  -1 -14    0.24    0.13
  -1  11 -14   -0.10    0.12
  -2  11   1    1.05    0.54
  -2  11  -1    0.35    0.57
   2 -11   1    1.10    0.43
  -2  11   3   -0.40    0.56
  -2  11  -3   -0.22    0.49
 -11  -2   3   -0.26    0.49
   2 -11   3    0.08    0.40
  -2  11   5    4.63    0.74
  -2  11  -5    2.99    0.71
   2 -11   5    3.04    0.55
 -11  -2   5    3.86    0.66
   2 -11  -5    2.63    0.32
  11   2  -5    4.23    0.34
 -11  -2  -7   10.52    0.42
   2 -11  -7    9.93    0.44
  11   2  -7   10.24    0.44
 -11  -2  -9    6.37    0.37
  11   2  -9    6.47    0.38
  11   2 -11    5.25    0.34
 -11  -2 -13   12.23    0.32
  -3  11   0   -0.63    0.56
 -11  -3   0   -0.24    0.42
  -3  11   2    7.04    0.71
  -3  11  -2    7.75    0.74
 -11  -3   2    6.98    0.74
  -3  11   4    6.62    0.74
  -3  11  -4    4.22    0.71
 -11  -3   4    4.93    0.74
   3 -11   4    5.86    0.61
   3 -11  -4    5.19    0.34
  11   3  -4    6.75    0.36
 -11  -3  -6    7.02    0.39
   3 -11  -6    6.17    0.38
  11   3  -6    6.58    0.38
 -11  -3  -8    5.25    0.34
  11   3  -8    5.08    0.36
 -11  -3 -10    0.22    0.24
  11   3 -10    0.03    0.25
  11   3 -12   -0.19    0.20
 -11  -3 -14    0.49    0.14
  -3  11 -14    0.38    0.11
  -4  11   1    1.62    0.53
  -4  11  -1    2.09    0.52
 -11  -4   1    1.82    0.50
  -4  11   3   19.54    0.97
  -4  11  -3   19.01    1.01
   4 -11  -3   20.29    0.48
 -11  -4   3   19.73    1.14
   4 -11  -3   19.71    0.48
   4 -11  -5    0.18    0.25
  -4  11   5    0.94    0.62
 -11  -4  -7    1.06    0.28
  11   4  -7    1.17    0.28
 -11  -4  -9   20.39    0.53
  11   4  -9   21.41    0.58
 -11  -4 -11   20.30    0.50
  11   4 -11   19.94    0.49
 -11  -4 -13   12.21    0.32
 -11  -5   0   -0.30    0.43
   5 -11   0   -0.29    0.25
  -5  11   2    8.03    0.73
  -5  11  -2    8.69    0.72
   5 -11   2    9.77    0.39
 -11  -5   2    8.35    0.80
   5 -11  -2    9.03    0.38
  -5  11   4    4.28    0.68
   5 -11  -4    4.53    0.31
   5 -11  -4    4.58    0.31
 -11  -5   4    5.50    0.76
 -11  -5  -6   19.37    0.53
 -11  -5  -8   -0.05    0.25
  11   5  -8   -0.06    0.25
 -11  -5 -10    2.46    0.28
  11   5 -10    2.49    0.30
 -11  -5 -12   10.80    0.34
  11   5 -12    9.77    0.31
 -11  -5 -14    0.03    0.11
 -11  -6   1   -0.66    0.44
   6 -11  -1   -0.14    0.25
   6 -11   1   -0.33    0.25
   6 -11  -3   21.78    0.54
 -11  -6   3   19.88    1.19
   6 -11  -5   -0.38    0.26
 -11  -6  -7    1.51    0.27
  11   6  -7    1.14    0.28
 -11  -6  -9    4.75    0.33
  11   6  -9    5.10    0.35
 -11  -6 -11    5.87    0.31
  11   6 -11    5.88    0.29
  -6  11 -13    3.58    0.13
   7 -11   0   -0.45    0.28
   7 -11   2   25.49    0.59
   7 -11  -2   25.42    0.58
   7 -11  -4    1.42    0.24
   7 -11   4    1.69    0.28
   7 -11  -4    1.41    0.26
 -11  -7  -6    6.05    0.36
 -11  -7  -8   -0.19    0.24
  11   7  -8   -0.12    0.24
 -11  -7 -10    9.02    0.36
  11   7 -10    8.56    0.37
 -11  -7 -12   -0.16    0.16
   8 -11  -1    2.48    0.31
   8 -11   1    3.08    0.31
   8 -11   3    6.98    0.38
   8 -11  -3    6.89    0.36
 -11  -8  -5   -0.07    0.27
   8 -11  -5    0.08    0.22
 -11  -8  -7    1.77    0.28
 -11  -8  -9    3.87    0.29
  11   8  -9    3.62    0.30
 -11  -8 -11    6.29    0.27
  11   8 -11    5.95    0.25
 -11  -8 -13    1.42    0.12
   9 -11   0   -0.43    0.27
   9 -11  -2   27.16    0.61
   9 -11   2   27.17    0.61
   9 -11  -4    0.09    0.24
   9 -11   4    0.50    0.24
 -11  -9  -6   16.01    0.47
 -11  -9  -8    2.06    0.26
  11   9  -8    2.66    0.27
 -11  -9 -10    1.33    0.20
  11   9 -10    0.86    0.20
 -11  -9 -12    0.99    0.13
  10 -11  -1   -0.17    0.25
  10 -11   1   -0.21    0.24
  10 -11  -3   -0.15    0.24
  10 -11   3   -0.22    0.24
 -11 -10  -5    1.60    0.26
  10 -11  -5    1.94    0.26
  10 -11   5    1.74    0.25
 -11 -10  -7    9.39    0.36
 -11 -10  -9    0.06    0.17
  11  10  -9    0.26    0.18
 -11 -10 -11    0.63    0.13
  11  10 -11    0.45    0.11
  11 -11   0   -0.17    0.25
  11 -11  -2   27.24    0.60
  11 -11   2   26.69    0.58
  11 -11  -4    0.11    0.22
  11 -11   4    0.14    0.22
 -11 -11  -6   16.26    0.43
  11 -11   6   15.78    0.38
 -11 -11  -8    0.36    0.17
  11  11  -8    0.39    0.18
 -11 -11 -10    0.96    0.14
  11  11 -10    0.88    0.14
  12 -11  -1   -0.05    0.23
  12 -11   1   -0.09    0.23
  12 -11  -3    1.38    0.24
  12 -11   3    1.21    0.23
 -11 -12  -5    0.12    0.19
  12 -11   5   -0.25    0.19
 -11 -12  -7    0.38    0.16
 -11 -12  -9    0.17    0.12
  11  12  -9    0.05    0.13
  12 -10   0    0.39    0.21
  12 -10   0    0.60    0.24
  12 -10   2    1.82    0.25
  12 -10  -2    2.07    0.29
  12 -10   2    2.17    0.27
  12 -10   4    3.04    0.25
  12 -10  -4    3.47    0.28
  12 -10   4    3.04    0.27
  12 -10   6    1.58    0.22
 -10 -12  -8    0.73    0.18
 -10 -12 -10    6.69    0.22
  10  12 -10    6.09    0.19
  12  -9  -1   -0.02    0.21
  12  -9   1   -0.16    0.22
  12  -9   3   11.86    0.40
  12  -9  -3   12.24    0.43
  12  -9   5   -0.25    0.21
  12  -9  -5   -0.12    0.22
  12  -9   7    2.56    0.22
  -9 -12  -9   -0.28    0.19
  -9 -12 -11    0.04    0.12
  12  -8   0    4.21    0.29
  12  -8  -2    0.15    0.21
  12  -8   2    0.12    0.22
  12  -8   4    3.23    0.28
  12  -8  -4    3.05    0.29
  12  -8  -4    3.67    0.29
  12  -8   6    4.48    0.29
  12  -8  -6    5.47    0.32
  12  -8   8    0.49    0.17
  -8 -12 -10    4.94    0.26
   8  12 -10    4.23    0.22
  -8 -12 -12   -0.03    0.11
  12  -7  -1    0.10    0.21
  12  -7   1    0.03    0.21
  12  -7  -1    0.18    0.21
  -7 -12  -1   -0.02    0.24
  12  -7   3   12.23    0.40
  12  -7  -3   11.59    0.40
  12  -7   5    9.39    0.35
  12  -7  -5    9.63    0.38
  12  -7  -5    9.43    0.39
  12  -7   7   17.40    0.43
  12  -7  -7   18.68    0.48
  12  -7   9    0.68    0.17
  12  -7  -9    1.07    0.21
  -7 -12 -11    0.40    0.18
  12  -6   0    0.93    0.23
  12  -6  -2    0.28    0.21
  12  -6  -2    0.12    0.22
  -6 -12  -2    0.18    0.24
  -6 -12  -4    8.07    0.40
  12  -6  -4    8.16    0.36
  12  -6   6   10.31    0.36
  12  -6  -6   10.37    0.41
  12  -6   8    0.59    0.21
  12  -6  -8    0.85    0.25
  -6 -12 -10    6.44    0.34
  12  -6 -10    7.08    0.29
  -6 -12 -12    0.41    0.16
  -5 -12  -1    0.10    0.25
  -5 -12  -3    8.08    0.39
  12  -5  -3    8.06    0.34
   5  12  -5    2.65    0.23
  -5 -12  -5    2.22    0.30
  12  -5  -5    2.46    0.27
  12  -5   7   17.86    0.42
   5  12  -7   18.71    0.41
  12  -5  -7   18.36    0.49
  12  -5   9   10.71    0.33
   5  12  -9   11.59    0.33
  12  -5  -9   11.64    0.40
  -5 -12 -11    5.09    0.31
   5  12 -11    5.75    0.22
  12  -5 -11    5.55    0.26
  -5 -12 -13    0.91    0.13
   4  12   0    2.46    0.61
  -4 -12   0    2.62    0.28
  -4 -12   0    2.33    0.51
   4  12   2   -0.63    0.58
   4  12  -2    0.59    0.50
  -4 -12   2   -0.08    0.43
  12  -4  -2    0.01    0.22
  -4 -12  -2    0.04    0.24
   4  12  -4    0.38    0.19
  12  -4  -4    0.15    0.22
  -4 -12  -4    0.34    0.23
   4  12  -6   -0.13    0.19
  12  -4  -6   -0.15    0.23
  -4 -12  -6   -0.42    0.27
   4  12  -8    4.61    0.27
  12  -4  -8    4.97    0.31
   4  12 -10   17.81    0.37
  12  -4 -10   17.61    0.44
   4  12 -12    0.23    0.13
  12  -4 -12    0.51    0.16
   3  12   1   40.05    1.32
  -3 -12   1   40.46    1.38
   3  12  -1   45.23    1.39
  -3 -12  -1   42.04    0.71
  -3 -12   1   43.81    0.69
   3  12   3   14.83    0.93
   3  12  -3   15.48    0.97
   3  12  -3   14.49    0.33
  -3 -12  -3   15.65    0.49
  12  -3  -3   15.55    0.45
  -3 -12   3   15.34    0.96
   3  12  -5    1.96    0.22
  -3 -12  -5    1.85    0.28
  12  -3  -5    1.54    0.27
   3  12  -7    4.58    0.27
  -3 -12  -7    4.32    0.35
  12  -3  -7    4.10    0.33
   3  12  -9   16.62    0.39
  12  -3  -9   17.02    0.47
  -3 -12 -11    1.58    0.26
   3  12 -11    2.04    0.20
  12  -3 -11    1.57    0.22
   3  12 -13    0.21    0.11
   2  12   0   15.37    0.98
  -2 -12   0   13.65    0.91
  -2 -12   0   13.52    0.50
  -2 -12  -2   -0.20    0.25
   2  12   2   -1.17    0.68
   2  12  -2   -0.24    0.57
  -2 -12   2   -0.35    0.47
   2  12  -4    4.05    0.25
  -2 -12  -4    3.11    0.33
  12  -2  -4    3.52    0.33
   2  12  -6    9.32    0.32
  -2 -12  -6    9.62    0.43
  12  -2  -6    9.87    0.42
  -2 -12  -8    3.28    0.33
   2  12  -8    2.99    0.25
  12  -2  -8    3.26    0.31
   2  12 -10   18.82    0.41
  12  -2 -10   20.69    0.49
  -2 -12 -12   -0.20    0.18
   2  12 -12   -0.13    0.15
  12  -2 -12   -0.30    0.18
   2  12 -14    0.46    0.09
   1  12   1   46.97    1.41
   1  12  -1   49.58    1.50
  -1 -12   1   47.96    1.45
  -1 -12  -1   47.71    1.37
  -1 -12  -1   45.56    0.73
  -1 -12   1   46.61    0.69
   1  12   3    6.71    0.77
   1  12  -3    6.63    0.76
  -1 -12   3    7.44    0.73
  -1 -12  -3    6.50    0.36
  12  -1  -3    7.31    0.35
   1  12  -5   24.31    0.43
  -1 -12  -5   26.28    0.62
  12  -1  -5   25.46    0.58
   1  12  -7   17.03    0.40
  -1 -12  -7   18.03    0.54
  12  -1  -7   17.63    0.52
  -1 -12  -9    8.17    0.41
   1  12  -9    6.80    0.31
  12  -1  -9    7.74    0.38
  -1 -12 -11    1.32    0.23
   1  12 -11    1.15    0.20
  12  -1 -11    1.42    0.22
   1  12 -13    0.13    0.12
  12  -1 -13    0.19    0.13
   0  12   0   12.27    0.89
   0 -12   0   11.93    0.82
   0 -12   0   11.48    0.41
   0  12   2    3.60    0.68
   0  12  -2    4.92    0.71
   0 -12   2    3.91    0.60
   0 -12  -2    3.09    0.30
  12   0  -2    4.28    0.31
   0 -12   2    2.32    0.28
   0 -12  -4    1.17    0.27
   0  12   4    2.43    0.65
   0  12  -4    1.21    0.58
   0 -12   4    1.20    0.49
  12   0  -4    1.09    0.26
   0  12  -6    4.52    0.26
   0 -12  -6    4.83    0.35
  12   0  -6    5.14    0.34
   0  12  -8   17.83    0.40
   0 -12  -8   18.98    0.56
  12   0  -8   18.99    0.53
  12   0 -10   -0.01    0.24
 -12   0 -12    2.07    0.19
   0  12 -12    2.41    0.19
  -1  12   1   60.34    1.57
  -1  12  -1   63.82    1.68
   1 -12   1   62.14    1.57
   1 -12  -1   58.90    0.79
   1 -12   1   58.65    0.75
  -1  12   3   23.80    1.11
  -1  12  -3   23.89    1.15
   1 -12   3   24.39    1.10
   1 -12  -3   23.79    0.56
  12   1  -3   24.49    0.55
   1 -12  -5   45.42    0.78
  12   1  -5   45.07    0.77
 -12  -1  -7    1.89    0.29
  12   1  -7    1.33    0.28
   1 -12  -7    1.29    0.28
   1 -12  -9    1.33    0.28
  12   1  -9    0.85    0.25
 -12  -1 -11    0.29    0.19
  -1  12 -11   -0.08    0.18
  12   1 -11   -0.16    0.22
 -12  -1 -13   -0.04    0.13
  -1  12 -13   -0.24    0.13
  12   1 -13    0.17    0.12
  -2  12   0    3.71    0.68
 -12  -2   0    3.38    0.58
   2 -12   0    4.39    0.31
   2 -12  -2   -0.33    0.24
  -2  12   2   -0.55    0.62
  -2  12  -2   -0.08    0.55
 -12  -2   2    0.49    0.49
   2 -12   2    0.04    0.45
  12   2  -2    0.04    0.26
   2 -12  -4    3.55    0.37
  12   2  -4    5.04    0.39
  12   2  -6    0.47    0.26
   2 -12  -6    0.74    0.26
 -12  -2  -8    6.74    0.38
  12   2  -8    6.27    0.38
  12   2 -10    0.00    0.25
 -12  -2 -12   -0.01    0.18
  -2  12 -12   -0.12    0.16
  12   2 -12    0.09    0.17
  -2  12 -14    0.63    0.09
  -3  12   1   43.35    1.36
  -3  12  -1   47.67    1.44
 -12  -3   1   45.26    1.55
   3 -12  -1   43.97    0.67
  -3  12   3   13.55    0.88
  -3  12  -3   12.73    0.92
 -12  -3   3   14.86    1.06
   3 -12  -3   13.89    0.45
  12   3  -3   14.96    0.46
   3 -12  -5   43.84    0.77
  12   3  -5   43.70    0.77
 -12  -3  -7    0.03    0.25
  12   3  -7   -0.01    0.25
   3 -12  -7   -0.08    0.24
 -12  -3  -9    3.34    0.29
  12   3  -9    3.16    0.30
  12   3 -11    4.20    0.28
 -12  -3 -13    0.02    0.13
  -4  12   0   -0.56    0.58
   4 -12   0    0.85    0.24
  -4  12   2    3.95    0.66
  -4  12  -2    4.37    0.65
   4 -12   2    3.40    0.30
  12   4  -2    4.40    0.30
   4 -12  -2    3.90    0.29
 -12  -4   2    4.04    0.64
   4 -12  -4   -0.42    0.26
  12   4  -4   -0.19    0.26
   4 -12  -6    0.18    0.25
  12   4  -6    0.47    0.26
 -12  -4  -8    1.17    0.26
  12   4  -8    1.20    0.28
 -12  -4 -10    2.20    0.26
  12   4 -10    2.55    0.28
 -12  -4 -12    2.80    0.20
  -4  12 -12    2.47    0.16
  12   4 -12    2.60    0.20
   5 -12  -1   31.39    0.61
   5 -12   1   32.09    0.62
   5 -12   3    7.06    0.36
   5 -12  -3    5.90    0.34
   5 -12  -5   12.54    0.45
  12   5  -5   12.00    0.45
 -12  -5  -7   -0.10    0.25
  12   5  -7    0.02    0.26
 -12  -5  -9    0.89    0.23
  12   5  -9    0.68    0.25
 -12  -5 -11    9.88    0.32
  12   5 -11    9.24    0.33
 -12  -5 -13    3.22    0.16
   6 -12   0    1.23    0.27
   6 -12  -2    1.60    0.26
   6 -12   2    1.43    0.28
   6 -12  -4    0.45    0.23
   6 -12   4    0.95    0.24
 -12  -6  -6   12.45    0.43
  12   6  -6   11.63    0.45
 -12  -6  -8    1.07    0.25
  12   6  -8    1.47    0.27
 -12  -6 -10    7.03    0.31
  12   6 -10    7.15    0.32
  12   6 -12    0.83    0.14
   7 -12  -1   23.39    0.57
   7 -12   1   24.35    0.58
   7 -12  -3    5.46    0.34
   7 -12   3    5.80    0.35
   7 -12  -3    5.55    0.32
   7 -12  -5    4.08    0.31
 -12  -7  -7    0.00    0.24
  12   7  -7    0.58    0.24
 -12  -7  -9   -0.17    0.20
  12   7  -9   -0.03    0.21
 -12  -7 -11    1.09    0.17
  12   7 -11    0.83    0.16
   8 -12   0    2.37    0.29
   8 -12  -2   -0.25    0.24
   8 -12   2   -0.30    0.26
   8 -12  -4   -0.25    0.21
   8 -12  -4   -0.08    0.22
   8 -12   4   -0.10    0.22
 -12  -8  -6    3.60    0.29
  12   8  -8   -0.03    0.21
 -12  -8 -10    7.35    0.27
  12   8 -10    7.61    0.29
   9 -12  -1   -0.10    0.24
   9 -12   1   -0.02    0.24
   9 -12  -3    0.91    0.22
   9 -12  -3    0.88    0.24
   9 -12   3    1.13    0.25
   9 -12   5    3.37    0.27
 -12  -9  -7    9.27    0.34
  12   9  -7    9.80    0.37
 -12  -9  -9    1.32    0.18
  12   9  -9    1.06    0.20
 -12  -9 -11    0.94    0.12
  12   9 -11    0.92    0.12
  10 -12   0    4.90    0.33
  10 -12  -2   -0.22    0.25
  10 -12   2   -0.28    0.26
  10 -12  -4    0.03    0.21
  10 -12   4    0.04    0.21
 -12 -10  -6    5.93    0.29
 -12 -10  -8    0.10    0.16
  12  10  -8   -0.05    0.18
 -12 -10 -10    8.86    0.22
  12  10 -10    8.79    0.23
  11 -12  -1    1.60    0.25
  11 -12   1    1.47    0.26
  11 -12  -3   -0.31    0.22
  11 -12   3   -0.32    0.23
  11 -12   5   -0.11    0.18
 -12 -11  -7    1.37    0.17
  12  11  -7    1.44    0.19
 -12 -11  -9    0.57    0.12
  12  11  -9    0.75    0.14
  12 -12   0    3.08    0.27
  12 -12  -2    0.39    0.21
  12 -12   2    0.17    0.21
  12 -12   4   -0.03    0.17
  12  12  -6    3.53    0.22
  12  12  -8    1.02    0.14
  13 -12  -1    0.18    0.17
  13 -12   1    0.11    0.18
  13 -12  -3    0.12    0.15
  13 -12   3    0.20    0.16
  13 -12   5    1.38    0.14
  12  13  -7    0.22    0.11
  13 -11   0   -0.17    0.21
  13 -11  -2   21.70    0.47
  13 -11   2   20.30    0.47
  13 -11  -4    0.47    0.17
  13 -11   4    0.35    0.18
 -11 -13  -6    6.44    0.22
  13 -11   6    4.63    0.19
  11  13  -8   -0.16    0.12
  13 -10  -1   -0.10    0.22
  13 -10   1   -0.43    0.23
  13 -10   3    1.71    0.21
  13 -10  -3    1.83    0.24
  13 -10   3    1.45    0.23
  13 -10  -5   -0.14    0.17
  13 -10   5   -0.19    0.18
 -10 -13  -7    0.31    0.16
 -10 -13  -9   -0.09    0.12
  13  -9   0   -0.40    0.22
  13  -9  -2   22.55    0.44
  13  -9   2   22.71    0.48
  13  -9  -2   23.04    0.53
  13  -9   4   -0.28    0.20
  13  -9  -4   -0.21    0.22
  13  -9   6    8.57    0.29
  -9 -13  -8    0.07    0.17
  -9 -13 -10    1.89    0.15
  13  -8  -1    0.33    0.21
  13  -8   1    0.29    0.22
  13  -8   3    1.28    0.24
  13  -8  -3    1.15    0.24
  13  -8   5    1.03    0.21
  13  -8  -5    1.06    0.23
  13  -8   7    0.01    0.17
  -8 -13  -9    0.01    0.17
  -8 -13 -11    0.52    0.12
  13  -7   0   -0.16    0.21
  13  -7  -2   28.96    0.52
  13  -7   2   28.08    0.54
  13  -7   4   -0.11    0.21
  13  -7  -4   -0.31    0.23
  13  -7  -4   -0.16    0.21
  13  -7   6   10.44    0.35
  13  -7  -6   10.80    0.37
  13  -7   8    0.72    0.17
  13  -7  -8    1.34    0.21
  -7 -13 -10    3.17    0.22
  13  -6  -1    2.10    0.24
  13  -6   1    2.24    0.25
  -6 -13  -1    1.59    0.27
  13  -6   3    2.04    0.25
  -6 -13  -3    1.71    0.28
  13  -6  -3    1.43    0.25
  13  -6   5    2.30    0.24
  13  -6  -5    1.85    0.26
  13  -6   7    5.75    0.28
  13  -6  -7    6.06    0.32
  13  -6   9    1.32    0.17
  13  -6  -9    1.94    0.21
  -6 -13 -11    2.01    0.19
  -5 -13   0    0.00    0.23
  13  -5  -2   14.39    0.38
  -5 -13  -2   13.85    0.47
  13  -5  -2   13.82    0.40
  -5 -13  -4    4.39    0.35
  13  -5  -4    5.91    0.32
  -5 -13  -6   17.91    0.52
  13  -5  -6   17.96    0.46
  13  -5   8    0.71    0.20
   5  13  -8    1.01    0.20
  13  -5  -8    0.75    0.23
  -5 -13 -10   -0.24    0.21
  13  -5 -10    0.11    0.17
  -5 -13 -12    0.27    0.13
  -4 -13  -1    0.72    0.25
  -4 -13   1    0.88    0.25
  -4 -13  -3    5.62    0.36
  13  -4  -3    5.62    0.31
  -4 -13  -5    6.96    0.38
  13  -4  -5    8.08    0.36
   4  13  -7   25.38    0.44
  -4 -13  -7   26.95    0.61
  13  -4  -7   25.50    0.54
  13  -4   9   15.63    0.35
   4  13  -9   15.81    0.34
  -4 -13 -11    1.26    0.20
   4  13 -11    1.55    0.15
  13  -4 -11    1.68    0.19
  -3 -13   0   -0.21    0.24
  -3 -13  -2    2.51    0.30
  13  -3  -2    2.77    0.26
   3  13  -4    1.12    0.19
  13  -3  -4    0.91    0.24
  -3 -13  -4    0.69    0.25
   3  13  -6    6.92    0.28
  -3 -13  -6    7.08    0.39
  13  -3  -6    7.43    0.36
   3  13  -8    0.13    0.19
  13  -3  -8    0.20    0.23
   3  13 -10    1.23    0.17
  13  -3 -10    1.17    0.20
  -3 -13 -12   -0.03    0.13
   3  13 -12    0.20    0.11
  13  -3 -12    0.22    0.14
  -2 -13  -1    0.11    0.23
  -2 -13   1    0.00    0.23
  13  -2  -3    0.97    0.24
  -2 -13  -3    1.11    0.26
   2  13  -5    5.34    0.25
  -2 -13  -5    5.57    0.36
  13  -2  -5    5.22    0.34
   2  13  -7   10.57    0.32
  -2 -13  -7   10.66    0.44
  13  -2  -7   10.05    0.41
   2  13  -9    9.09    0.30
  13  -2  -9    8.96    0.37
  -2 -13 -11    4.65    0.27
   2  13 -11    4.62    0.20
  13  -2 -11    4.55    0.25
   2  13 -13    5.80    0.14
  -1 -13   0    0.14    0.23
  -1 -13  -2    0.35    0.24
  -1 -13   2    0.21    0.22
  13  -1  -2    0.65    0.23
  -1 -13  -4    1.43    0.28
  13  -1  -4    1.67    0.28
   1  13  -6    0.29    0.18
  13  -1  -6    0.02    0.25
  -1 -13  -6   -0.13    0.25
   1  13  -8    8.72    0.31
  -1 -13  -8    7.94    0.41
  13  -1  -8    7.54    0.38
   1  13 -10    0.45    0.17
  13  -1 -10    0.37    0.20
   1  13 -12    0.53    0.12
  13  -1 -12    0.11    0.15
   0 -13  -1    0.11    0.22
   0 -13   1   -0.01    0.21
   0 -13  -3    3.76    0.32
  13   0  -3    4.18    0.30
   0 -13   3    3.88    0.28
   0 -13  -5    6.60    0.38
  13   0  -5    6.58    0.37
   0  13  -7    8.47    0.30
   0 -13  -7    7.93    0.41
  13   0  -7    7.18    0.39
   0 -13  -9   10.74    0.42
   0  13  -9   10.27    0.31
  13   0  -9    9.88    0.40
   0  13 -11   16.87    0.31
  13   0 -11   16.88    0.39
   0  13 -13    2.95    0.12
   1 -13   0   -0.15    0.21
   1 -13  -2    0.02    0.23
   1 -13   2    0.42    0.21
  13   1  -2    0.12    0.22
   1 -13  -4    4.86    0.35
  13   1  -4    5.68    0.34
   1 -13   4    5.86    0.31
  13   1  -6    0.22    0.23
   1 -13  -6   -0.05    0.25
   1 -13  -8    0.12    0.24
  -1  13 -10    1.75    0.19
  13   1 -10    1.97    0.25
  -1  13 -12    0.65    0.13
  13   1 -12    0.96    0.15
   2 -13  -1    1.67    0.25
   2 -13   1    1.70    0.24
   2 -13  -3   -0.02    0.24
  13   2  -3    0.53    0.26
   2 -13  -5    5.41    0.36
  13   2  -5    5.37    0.35
   2 -13  -7    5.64    0.36
  13   2  -7    5.74    0.35
  -2  13  -9    2.03    0.21
  13   2  -9    2.13    0.28
  -2  13 -11    9.63    0.24
  13   2 -11    9.55    0.33
   3 -13   0    0.14    0.20
   3 -13  -2    4.27    0.31
  13   3  -2    4.59    0.32
   3 -13  -4    2.36    0.29
  13   3  -4    2.31    0.29
   3 -13  -6    2.25    0.30
  13   3  -6    2.47    0.30
 -13  -3  -8    0.68    0.22
   3 -13  -8    0.23    0.22
  13   3  -8    0.38    0.22
  -3  13 -10    1.93    0.18
  13   3 -10    2.67    0.25
 -13  -3 -12    1.10    0.13
  -3  13 -12    1.26    0.12
  13   3 -12    0.96    0.15
   4 -13  -1    6.27    0.33
   4 -13  -3    0.00    0.23
  13   4  -3   -0.14    0.23
   4 -13  -5   -0.08    0.25
  13   4  -5    0.14    0.24
   4 -13  -7    4.16    0.32
  13   4  -7    4.43    0.33
 -13  -4  -9    3.23    0.25
  13   4  -9    3.13    0.28
  13   4 -11   10.31    0.31
   5 -13   2    2.94    0.29
   5 -13  -2    3.21    0.28
  13   5  -2    3.03    0.29
   5 -13  -4    2.93    0.29
  13   5  -4    2.90    0.30
   5 -13  -6    4.71    0.33
  13   5  -6    4.63    0.34
 -13  -5  -8    0.06    0.22
  13   5  -8    0.03    0.23
  13   5 -10    7.59    0.31
 -13  -5 -12    1.04    0.12
  13   5 -12    0.93    0.12
   6 -13  -1    0.18    0.22
   6 -13   1   -0.28    0.25
   6 -13  -3   -0.02    0.22
   6 -13   3   -0.24    0.24
  13   6  -3   -0.32    0.26
   6 -13  -5    1.62    0.26
  13   6  -5    1.71    0.27
 -13  -6  -7    3.03    0.26
  13   6  -7    3.01    0.29
 -13  -6  -9    2.11    0.22
  13   6  -9    2.39    0.24
  13   6 -11    3.57    0.20
   7 -13   0    0.04    0.22
   7 -13  -2   11.00    0.41
   7 -13   2   11.42    0.41
   7 -13  -2   10.01    0.38
   7 -13  -4    0.28    0.22
   7 -13   4   -0.20    0.23
  13   7  -4   -0.26    0.24
  13   7  -6    5.73    0.34
 -13  -7  -8   -0.17    0.19
  13   7  -8   -0.05    0.20
 -13  -7 -10    2.57    0.18
  13   7 -10    2.81    0.20
   8 -13  -1    0.27    0.23
   8 -13   1    0.12    0.23
   8 -13  -3    0.52    0.21
   8 -13   3    0.74    0.23
  13   8  -5    3.10    0.28
  13   8  -7    0.18    0.21
 -13  -8  -9    4.21    0.21
  13   8  -9    4.33    0.24
   9 -13   0   -0.39    0.25
   9 -13  -2   13.89    0.43
   9 -13   2   13.66    0.43
   9 -13  -2   12.70    0.39
   9 -13  -4   -0.30    0.20
   9 -13   4   -0.14    0.20
  13   9  -6   10.17    0.37
 -13  -9  -8    0.21    0.14
  13   9  -8    0.37    0.18
  13   9 -10    0.70    0.12
  10 -13  -1    0.29    0.20
  10 -13  -1    0.20    0.22
  10 -13   1    0.08    0.22
  10 -13  -3    0.85    0.19
  10 -13   3    0.73    0.22
  10 -13   5    3.92    0.22
  13  10  -5    4.46    0.27
  13  10  -7    1.33    0.19
  13  10  -9    0.07    0.11
  11 -13   0    0.05    0.20
  11 -13   2   16.76    0.42
  11 -13  -2   16.01    0.36
  11 -13   4   -0.02    0.16
  13  11  -6    6.84    0.27
  13  11  -8   -0.18    0.12
  12 -13  -1    0.23    0.14
  12 -13  -1    0.25    0.17
  12 -13   1   -0.01    0.18
  12 -13   3    1.59    0.18
  13  12  -5    0.04    0.15
  13  12  -7   -0.20    0.11
  13 -13   0   -0.14    0.11
  13 -13   0   -0.10    0.14
  13  13  -2   10.24    0.25
  13 -13   2   10.14    0.24
  13  13  -4    0.46    0.12
  14 -12   0    0.35    0.15
  14 -12  -2    0.04    0.13
  14 -12   2    0.11    0.14
  14 -12   4    0.01    0.11
  12  14  -4    0.11    0.11
  14 -11  -1    1.95    0.21
  14 -11   1    1.83    0.21
  14 -11  -3    0.03    0.15
  14 -11   3    0.09    0.16
  11  14  -7   -0.11    0.09
  14 -10   0    0.00    0.20
  14 -10  -2    3.85    0.27
  14 -10   2    3.53    0.25
  14 -10  -4    1.01    0.18
  14 -10   4    0.84    0.18
 -10 -14  -6    1.12    0.15
  14 -10   6    0.52    0.13
 -10 -14  -8    0.01    0.10
  10  14  -8    0.04    0.10
  14  -9  -1    7.16    0.28
  14  -9   1    7.30    0.30
  14  -9  -1    7.90    0.33
  14  -9   3   -0.05    0.18
  14  -9  -3   -0.17    0.21
  14  -9   5    1.24    0.17
  14  -9  -5    1.21    0.18
  14  -9   5    1.21    0.18
  -9 -14  -7    1.05    0.17
  14  -9   7    0.19    0.15
  -9 -14  -9   -0.14    0.11
  14  -8   0    0.28    0.20
  14  -8  -2   -0.26    0.19
  14  -8   2   -0.18    0.20
  14  -8  -2   -0.01    0.21
  14  -8   4    0.61    0.19
  14  -8  -4    0.08    0.21
  14  -8   6    5.47    0.24
  -8 -14  -8    0.54    0.17
  -8 -14 -10    0.99    0.12
  14  -7  -1    3.33    0.26
  14  -7   1    3.85    0.27
  14  -7   3    2.34    0.25
  14  -7   5   22.66    0.46
  14  -7  -5   23.91    0.46
  14  -7   7    2.45    0.20
  -7 -14  -9    0.11    0.16
  14  -6   0    0.36    0.20
  -6 -14   0    0.43    0.22
  14  -6  -2    0.28    0.21
  14  -6   2    0.56    0.21
  -6 -14  -2    1.06    0.24
  14  -6  -2    0.60    0.20
  14  -6   4    0.14    0.19
  14  -6  -4   -0.16    0.21
  14  -6   6    2.82    0.23
  14  -6  -6    2.89    0.25
  14  -6   8    1.42    0.17
  14  -6  -8    1.96    0.21
  -6 -14 -10    4.06    0.21
  14  -5  -1   -0.02    0.21
  -5 -14  -1    0.39    0.22
  -5 -14  -3   24.05    0.57
  14  -5  -3   23.46    0.48
  14  -5   5    6.53    0.29
  -5 -14  -5    6.04    0.35
  14  -5  -5    6.62    0.32
  14  -5   7    1.25    0.20
  14  -5  -7    1.37    0.23
  14  -5   9    4.42    0.20
  14  -5  -9    4.90    0.24
  -5 -14 -11    0.49    0.13
  -4 -14   0    8.84    0.38
  14  -4  -2    0.45    0.20
  -4 -14  -2    0.21    0.25
  -4 -14  -4   13.56    0.46
  14  -4  -4   13.17    0.39
  -4 -14  -6    3.21    0.30
  14  -4  -6    3.33    0.26
  14  -4   8    0.83    0.18
  14  -4  -8    0.75    0.20
  -4 -14 -10    2.22    0.22
  14  -4 -10    2.60    0.20
  -3 -14  -1    3.72    0.31
  -3 -14   1    3.25    0.30
  -3 -14  -3   43.18    0.76
  14  -3  -3   43.76    0.65
  -3 -14  -5   10.04    0.42
  14  -3  -5   10.19    0.38
   3  14  -7    5.90    0.25
  -3 -14  -7    6.13    0.35
  14  -3  -7    5.27    0.30
  14  -3   9    2.22    0.19
   3  14  -9    2.54    0.18
  14  -3  -9    2.54    0.22
  -3 -14 -11   -0.02    0.13
  14  -3 -11    0.22    0.14
  -2 -14   0    0.17    0.24
  -2 -14  -2    3.55    0.32
  -2 -14   2    3.81    0.31
  14  -2  -2    4.02    0.28
  14  -2  -4   -0.26    0.24
  -2 -14  -4    0.09    0.24
   2  14  -6    8.07    0.27
  -2 -14  -6    8.09    0.39
  14  -2  -6    8.49    0.36
   2  14  -8    3.79    0.22
  14  -2  -8    3.00    0.26
   2  14 -10    0.54    0.14
  14  -2 -10    0.99    0.18
  14  -2 -12    0.27    0.11
  -1 -14  -1    4.50    0.34
  -1 -14   1    5.65    0.35
  -1 -14  -3   20.01    0.54
  14  -1  -3   18.80    0.48
  -1 -14   3   20.24    0.51
   1  14  -5    7.74    0.26
  -1 -14  -5    7.55    0.39
  14  -1  -5    7.34    0.36
   1  14  -7   40.67    0.49
  -1 -14  -7   42.24    0.73
  14  -1  -7   40.75    0.68
   1  14  -9    1.80    0.18
  14  -1  -9    1.41    0.22
   1  14 -11    1.44    0.13
  14  -1 -11    1.43    0.17
   0 -14   0    3.95    0.34
   0 -14   2   -0.12    0.24
  14   0  -2   -0.14    0.24
   0 -14  -4    3.69    0.33
  14   0  -4    3.32    0.31
   0 -14   4    2.84    0.28
  14   0  -6   -0.03    0.25
   0 -14  -6    0.15    0.24
   0 -14  -8    0.72    0.25
  14   0  -8    0.32    0.24
  14   0 -10    0.18    0.17
  14   0 -12    1.54    0.13
   1 -14  -1   28.55    0.62
   1 -14   1   29.17    0.61
  14   1  -3   21.35    0.50
   1 -14   3   21.72    0.51
  14   1  -5    0.84    0.24
   1 -14  -5    1.02    0.26
   1 -14  -7   21.15    0.54
  14   1  -7   20.24    0.52
  -1  14  -9    3.87    0.20
  14   1  -9    3.48    0.27
  -1  14 -11    0.06    0.11
  14   1 -11    0.11    0.14
   2 -14   0    2.01    0.27
  14   2  -2    3.25    0.29
   2 -14   2    3.61    0.30
   2 -14  -4    2.52    0.31
  14   2  -4    3.22    0.30
   2 -14   4    3.45    0.28
  14   2  -6    0.64    0.23
   2 -14  -6   -0.28    0.27
   2 -14  -8    2.30    0.26
  14   2  -8    1.99    0.26
  -2  14 -10    0.66    0.13
  14   2 -10    0.99    0.19
  14   2 -12    0.27    0.11
   3 -14  -1   10.76    0.41
   3 -14   1   11.32    0.41
   3 -14  -3   23.30    0.58
  14   3  -3   24.45    0.55
   3 -14   3   25.04    0.54
   3 -14  -5    7.04    0.37
  14   3  -5    7.01    0.36
   3 -14   5    6.80    0.32
   3 -14  -7    6.71    0.35
  14   3  -7    7.16    0.35
  14   3  -9    7.39    0.32
  14   3 -11    0.04    0.13
   4 -14   0    5.67    0.33
   4 -14  -2    5.55    0.34
  14   4  -2    5.67    0.33
   4 -14  -4    0.10    0.25
  14   4  -4    0.77    0.26
   4 -14   6    0.77    0.19
  14   4  -6    0.47    0.23
   4 -14  -6    0.42    0.24
  14   4  -8    0.33    0.20
  14   4 -10    0.56    0.17
   5 -14  -1   17.54    0.49
   5 -14   1   18.80    0.49
   5 -14  -3   30.56    0.62
  14   5  -3   29.70    0.60
   5 -14  -5    2.52    0.28
  14   5  -5    2.50    0.28
   5 -14  -7   -0.02    0.20
  14   5  -7    0.43    0.21
  14   5  -9    3.04    0.23
  14   5 -11    0.63    0.12
   6 -14   0    0.78    0.23
  14   6  -2   -0.32    0.23
   6 -14  -4   -0.30    0.25
  14   6  -4    0.13    0.22
   6 -14  -6   22.97    0.49
  14   6  -6   22.90    0.53
   6 -14   8    0.47    0.14
  14   6  -8    0.19    0.18
  14   6 -10    1.24    0.16
  14   7  -1   18.28    0.45
   7 -14  -1   19.67    0.48
   7 -14  -3    2.83    0.27
  14   7  -3    2.56    0.26
   7 -14  -5    8.64    0.34
  14   7  -5    8.89    0.37
  14   7  -7    0.32    0.20
  14   7  -9    0.15    0.14
   8 -14   0    0.91    0.22
   8 -14  -2    0.54    0.21
  14   8  -2    0.38    0.21
   8 -14  -4   -0.06    0.21
  14   8  -4    0.42    0.21
  14   8  -6    2.66    0.25
   8 -14   8    0.66    0.13
  14   8  -8    1.13    0.17
  14   8 -10    2.89    0.14
   9 -14  -1    0.90    0.21
   9 -14   1    1.24    0.23
  14   9  -1    0.84    0.20
   9 -14  -3   -0.15    0.19
  14   9  -3    0.35    0.19
  14   9  -5    6.23    0.29
  14   9  -7    0.60    0.17
  14   9  -9    0.07    0.10
  10 -14   0    9.04    0.31
  10 -14  -2    2.71    0.22
  14  10  -2    2.27    0.21
  14  10  -4    0.08    0.17
  14  10  -6    3.39    0.21
  14  10  -8    0.61    0.11
  11 -14  -1    2.67    0.19
  11 -14   1    2.78    0.19
  14  11  -3    1.18    0.17
  14  11  -5   -0.22    0.14
  11 -14   7    0.14    0.08
  14  11  -7   -0.19    0.10
  12 -14   0    1.59    0.15
  12 -14   2    1.69    0.15
  14  12  -2    0.81    0.14
  14  12  -4    0.81    0.13
  12 -14   4    0.89    0.12
  15 -12   1   -0.09    0.11
  15 -12   3   -0.08    0.08
  15 -11   0   -0.04    0.14
  15 -11  -2    5.60    0.20
  15 -11   2    5.12    0.21
  15 -11   4    0.06    0.11
  15 -10  -1    1.53    0.19
  15 -10   1    1.52    0.19
  15 -10  -3    0.07    0.14
  15 -10   3    0.00    0.15
 -10 -15  -5    0.23    0.11
  15 -10   5   -0.05    0.12
  15  -9   0   -0.31    0.19
  15  -9   2   10.55    0.29
  15  -9  -2   10.19    0.33
  15  -9   4   -0.05    0.14
  15  -9  -4   -0.12    0.15
  15  -9   4   -0.04    0.15
  -9 -15  -6    2.20    0.16
  15  -9   6    1.15    0.14
  15  -8  -1    1.14    0.18
  15  -8   1    1.13    0.19
  15  -8  -1    1.23    0.22
  15  -8   3    0.03    0.16
  15  -8  -3    0.03    0.19
  15  -8   5    0.56    0.15
  -8 -15  -7    2.41    0.18
  15  -8   7    0.90    0.13
  15  -7  -2   17.83    0.36
  15  -7   2   16.97    0.40
  15  -7   4    0.77    0.19
  15  -7  -4    0.80    0.19
  15  -7   6    2.84    0.19
  15  -7   8   -0.08    0.11
  -7 -15  -8   -0.06    0.14
  15  -6  -1    0.42    0.19
  15  -6   1    0.42    0.19
  -6 -15  -1   -0.06    0.22
  15  -6   3    0.40    0.19
  15  -6  -3    0.30    0.18
  15  -6   5    0.17    0.17
  15  -6  -5    0.23    0.18
  15  -6   7    2.60    0.18
  15  -6  -7    3.09    0.21
  -6 -15  -9    0.86    0.15
  -5 -15   0   -0.03    0.20
  15  -5  -2    8.27    0.30
  15  -5   2    7.66    0.31
  -5 -15  -2    7.22    0.34
  15  -5   4    0.59    0.18
  -5 -15  -4    0.27    0.21
  15  -5  -4    0.18    0.19
  15  -5   6    3.12    0.21
  15  -5  -6    3.72    0.24
  15  -5   8    0.25    0.14
  15  -5  -8    0.49    0.16
  -5 -15 -10    0.68    0.13
  15  -4  -1   -0.23    0.19
  -4 -15  -1    0.14    0.21
  -4 -15   1   -0.07    0.21
  -4 -15  -3    6.68    0.35
  15  -4  -3    6.52    0.29
  15  -4  -5    0.01    0.19
  -4 -15  -5   -0.33    0.23
  15  -4   7    0.94    0.17
  15  -4  -7    1.06    0.20
  15  -4   9    7.94    0.21
  15  -4  -9    8.48    0.26
  -3 -15   0   -0.11    0.21
  -3 -15  -2    0.29    0.22
  -3 -15  -4    3.33    0.29
  15  -3  -4    3.59    0.25
  -3 -15  -6    2.42    0.27
  15  -3  -6    3.68    0.24
  15  -3   8    1.44    0.17
  15  -3  -8    1.51    0.20
  -3 -15 -10    3.35    0.19
  15  -3 -10    4.66    0.20
  -2 -15  -1    0.01    0.23
  -2 -15   1    0.39    0.22
  -2 -15  -3    3.58    0.31
  15  -2  -3    3.02    0.26
  -2 -15  -5    2.48    0.28
  15  -2  -5    3.12    0.26
  -2 -15  -7    0.45    0.22
  15  -2  -7    0.58    0.20
  15  -2   9   10.25    0.25
  15  -2  -9    9.84    0.29
  15  -2 -11    4.94    0.17
  -1 -15   0   -0.30    0.24
  15  -1  -4   -0.37    0.22
  -1 -15  -4   -0.13    0.22
  -1 -15  -6    1.31    0.24
  15  -1  -6    1.52    0.23
  15  -1  -8    2.56    0.22
  15  -1 -10    0.86    0.15
   0 -15  -1    0.39    0.23
   0 -15   1    0.43    0.23
   0 -15  -3    3.44    0.31
  15   0  -3    3.19    0.27
   0 -15   3    3.18    0.28
   0 -15  -5    2.05    0.27
  15   0  -5    1.84    0.25
   0 -15  -7    6.84    0.33
  15   0  -7    6.25    0.31
  15   0  -9   13.53    0.34
  15   0 -11    1.37    0.14
   1 -15   0   -0.35    0.24
   1 -15  -2   -0.10    0.24
   1 -15   2    0.27    0.22
  15   1  -2    0.50    0.21
   1 -15   4    0.62    0.22
  15   1  -4    0.62    0.23
   1 -15  -4    0.42    0.24
  15   1  -6   -0.40    0.23
   1 -15  -6   -0.17    0.22
   1 -15  -8    0.41    0.19
  15   1  -8    0.06    0.19
  15   1 -10    0.15    0.13
   2 -15  -1    3.12    0.30
   2 -15   1    3.26    0.28
   2 -15  -3    9.54    0.41
  15   2  -3    9.30    0.36
   2 -15   3    9.97    0.38
   2 -15   5    0.69    0.20
  15   2  -5    0.21    0.22
   2 -15  -5    0.39    0.23
   2 -15  -7    0.95    0.21
  15   2  -7    0.46    0.21
  15   2  -9    7.67    0.28
  15   2 -11    1.82    0.13
   3 -15   0   -0.18    0.22
   3 -15  -2    4.71    0.33
  15   3  -2    5.08    0.28
   3 -15   2    5.30    0.31
   3 -15   4    0.07    0.20
  15   3  -4    0.09    0.20
   3 -15  -4   -0.38    0.24
   3 -15  -6    4.08    0.29
  15   3  -6    4.17    0.28
   3 -15   6    3.92    0.24
  15   3  -8    1.17    0.21
   3 -15  -8    0.95    0.18
  15   3 -10   -0.06    0.13
   4 -15  -1    0.40    0.22
   4 -15   1    0.55    0.22
   4 -15  -3    0.21    0.24
   4 -15   3    0.88    0.22
  15   4  -3    0.63    0.21
   4 -15   5    0.05    0.20
  15   4  -5    0.44    0.20
   4 -15  -5    0.23    0.22
   4 -15  -7    2.48    0.22
  15   4  -7    2.70    0.24
  15   4  -9    3.60    0.22
   5 -15   0    0.09    0.20
   5 -15  -2    3.79    0.30
  15   5  -2    3.45    0.26
   5 -15   2    4.06    0.29
   5 -15  -4    0.35    0.23
   5 -15   4    0.88    0.21
  15   5  -4    0.84    0.21
   5 -15  -6    2.74    0.23
  15   5  -6    2.93    0.24
   5 -15   6    2.82    0.22
  15   5  -8    0.36    0.17
  15   5 -10    2.43    0.15
   6 -15  -1    0.21    0.20
   6 -15   1   -0.15    0.20
   6 -15  -3    3.65    0.29
  15   6  -3    3.89    0.27
   6 -15   3    4.64    0.28
   6 -15  -5    2.21    0.23
  15   6  -5    2.48    0.24
   6 -15   5    2.63    0.22
  15   6  -7    4.62    0.24
   6 -15   7    3.65    0.20
  15   6  -9    0.74    0.14
   7 -15   0   -0.11    0.20
   7 -15  -2   11.33    0.38
  15   7  -2   10.72    0.34
   7 -15   2   11.56    0.37
   7 -15  -4   -0.22    0.20
   7 -15   4    0.18    0.17
  15   7  -4    0.24    0.19
  15   7  -6    2.08    0.20
   7 -15   6    2.07    0.18
   8 -15  -1    0.23    0.19
   8 -15   1    0.87    0.20
   8 -15  -3    3.79    0.25
  15   8  -3    3.71    0.24
  15   8  -5    2.21    0.21
   8 -15   5    2.41    0.19
  15   8  -7    3.17    0.19
   8 -15   7    2.84    0.16
   9 -15   0    0.04    0.16
   9 -15  -2    7.89    0.29
   9 -15   2    8.08    0.29
   9 -15   4    0.12    0.14
  15   9  -4   -0.24    0.16
   9 -15  -4   -0.24    0.14
  15   9  -6    3.56    0.19
   9 -15   6    3.38    0.17
  10 -15  -1    2.16    0.18
  10 -15   1    2.37    0.19
  15  10  -3    0.69    0.14
  10 -15  -3    0.50    0.13
  10 -15   5    0.05    0.11
  15  10  -5   -0.10    0.12
  11 -15   0   -0.06    0.12
  11 -15   2    5.51    0.20
  11 -15   4    0.52    0.11
  15  11  -4    0.52    0.10
  16 -11   1   -0.09    0.10
  16 -10   0    0.40    0.13
  16 -10  -2    0.20    0.11
  16 -10   2    0.07    0.12
  16 -10   4    0.06    0.09
  16  -9  -1    0.08    0.14
  16  -9   1   -0.08    0.14
  16  -9  -3   -0.14    0.13
  16  -9   3   -0.12    0.14
  16  -9   5    0.97    0.12
  16  -8   0    0.07    0.13
  16  -8   0    0.03    0.16
  16  -8   2   -0.21    0.14
  16  -8  -2   -0.04    0.16
  16  -8   4    0.30    0.12
  16  -8   4    0.32    0.14
  -8 -16  -6    3.38    0.17
  16  -8   6    1.46    0.13
  16  -7  -1    4.28    0.20
  16  -7   1    4.19    0.22
  16  -7   3   -0.12    0.15
  16  -7  -3    0.08    0.16
  16  -7   5    2.39    0.16
  16  -7   7   -0.18    0.10
  16  -7   7    0.00    0.10
  16  -6   0    2.38    0.21
  16  -6   2    0.25    0.17
  16  -6   4    0.61    0.16
  16  -6   6    2.12    0.16
  -6 -16  -8    0.06    0.12
  16  -5  -1   13.25    0.33
  16  -5   1   12.97    0.34
  -5 -16  -1   12.49    0.37
  16  -5   3    0.90    0.18
  16  -5   5    0.34    0.15
  16  -5  -5    0.50    0.15
  16  -5   7    0.30    0.13
  -5 -16  -9    4.92    0.17
  16  -4   0    9.41    0.30
  -4 -16   0    8.60    0.34
  16  -4   2   -0.26    0.19
  -4 -16  -2    0.20    0.20
  16  -4   4    6.19    0.25
  -4 -16  -4    5.79    0.29
  16  -4  -4    5.43    0.25
  16  -4   6    3.12    0.19
  16  -4  -6    3.36    0.20
  16  -4   8    0.18    0.12
  16  -4  -8    0.48    0.14
  16  -3  -1    7.67    0.27
  -3 -16  -1    6.82    0.33
  -3 -16  -3    7.42    0.34
  16  -3  -3    7.04    0.27
  -3 -16  -5   20.51    0.46
  16  -3  -5   20.48    0.40
  16  -3   7    0.30    0.14
  16  -3  -7    0.24    0.15
  -3 -16  -9    1.31    0.14
  16  -3  -9    1.92    0.15
  -2 -16   0    0.75    0.23
  -2 -16  -2    2.17    0.25
  -2 -16   2    1.37    0.23
  -2 -16  -4    8.26    0.35
  16  -2  -4    7.78    0.29
  -2 -16  -6    1.85    0.22
  16  -2  -6    2.23    0.19
  16  -2   8    0.36    0.13
  16  -2  -8    0.13    0.15
  16  -2 -10    0.48    0.10
  -1 -16  -1    4.76    0.31
  -1 -16   1    4.66    0.30
  -1 -16  -3    5.57    0.32
  -1 -16   3    5.71    0.29
  16  -1  -3    5.21    0.26
  -1 -16  -5   10.30    0.37
  16  -1  -5   10.05    0.32
  -1 -16  -7    5.76    0.27
  16  -1  -7    6.06    0.25
  16  -1   9    3.98    0.15
  16  -1  -9    4.09    0.19
   0 -16   0    1.91    0.26
   0 -16  -2    3.39    0.29
   0 -16   2    3.87    0.29
   0 -16  -4   16.69    0.46
  16   0  -4   16.02    0.39
  16   0  -6    0.32    0.17
   0 -16  -6    0.38    0.19
  16   0  -8   -0.20    0.15
  16   0 -10    0.14    0.10
   1 -16  -1   11.57    0.41
   1 -16   1   11.99    0.41
   1 -16  -3    5.24    0.32
  16   1  -3    4.74    0.27
   1 -16   3    5.55    0.31
   1 -16  -5    5.64    0.31
  16   1  -5    4.97    0.27
   1 -16  -7    2.40    0.22
  16   1  -7    2.10    0.20
  16   1   9    2.89    0.14
  16   1  -9    3.27    0.17
   2 -16   0    0.53    0.23
   2 -16  -2    3.10    0.28
   2 -16   2    3.32    0.28
   2 -16   4    0.79    0.21
   2 -16  -4    0.83    0.23
  16   2  -6    0.04    0.18
   2 -16  -6    0.23    0.19
  16   2  -8   13.33    0.31
  16   2 -10    0.29    0.09
   3 -16  -1    0.80    0.23
   3 -16   1    1.07    0.23
   3 -16  -3    5.56    0.32
   3 -16   3    6.03    0.31
   3 -16  -5    4.79    0.28
  16   3  -5    4.40    0.26
   3 -16   5    4.38    0.25
   3 -16  -7    4.12    0.23
  16   3  -7    4.56    0.24
  16   3  -9    2.20    0.15
   4 -16   0    4.49    0.30
   4 -16  -2   -0.06    0.21
   4 -16   2   -0.03    0.20
   4 -16   4   -0.04    0.18
   4 -16  -4   -0.15    0.20
  16   4  -6   -0.29    0.17
  16   4  -8    5.16    0.21
   5 -16  -1    1.72    0.24
   5 -16   1    1.89    0.24
   5 -16  -3    9.69    0.36
  16   5  -3    9.26    0.29
   5 -16  -5    1.32    0.19
  16   5  -5    1.25    0.18
   5 -16   5    1.20    0.18
  16   5  -7    4.72    0.22
  16   5  -9    0.42    0.10
   6 -16   0    0.51    0.20
   6 -16  -2    0.83    0.21
   6 -16   2    1.15    0.20
   6 -16   4    0.04    0.16
  16   6  -4   -0.04    0.16
   6 -16  -4   -0.22    0.18
   6 -16   6    0.07    0.13
  16   6  -6   -0.08    0.15
  16   6  -8    1.19    0.13
   7 -16  -1   -0.19    0.18
   7 -16   1   -0.10    0.17
   7 -16  -3    3.54    0.23
   7 -16   3    3.38    0.23
   7 -16  -5    7.13    0.23
  16   7  -5    7.40    0.24
   7 -16   5    7.49    0.25
  16   7  -7    2.26    0.15
   8 -16   0    1.35    0.18
   8 -16  -2   -0.08    0.16
   8 -16   2   -0.02    0.15
   8 -16   4    0.28    0.14
  16   8  -4    0.04    0.13
   8 -16  -4    0.07    0.13
   8 -16   6    0.10    0.10
   9 -16  -1    0.01    0.14
   9 -16   1    0.01    0.14
   9 -16  -3    1.97    0.15
   9 -16   3    2.22    0.17
   9 -16   5    0.37    0.10
  16   9  -5    0.11    0.10
  10 -16   0    3.53    0.17
  10 -16   2    0.04    0.11
  10 -16   4    0.50    0.10
  17  -9   0    0.04    0.10
  17  -9   2    1.96    0.13
  17  -8  -1   -0.15    0.13
  17  -8   1   -0.18    0.13
  17  -8   3    0.56    0.12
  17  -7   0   -0.11    0.14
  17  -7   2    9.09    0.22
  17  -7  -2    6.09    0.21
  17  -7   4    0.36    0.11
  17  -6   1   -0.21    0.14
  17  -6   3    0.78    0.14
  17  -6   5   -0.04    0.11
  17  -5   0   -0.07    0.14
  17  -5   2    4.49    0.21
  17  -5   4    1.21    0.15
  17  -5   6    0.76    0.12
  17  -4   1    0.88    0.16
  17  -4  -1    0.71    0.16
  -4 -17  -1    0.83    0.18
  17  -4   3    2.19    0.18
  17  -4   5    0.94    0.14
  17  -4   7    2.44    0.13
  17  -3   0   -0.12    0.15
  -3 -17   0   -0.11    0.17
  17  -3   2    1.74    0.17
  -3 -17  -2    1.81    0.21
  17  -3   4    0.63    0.14
  -3 -17  -4    0.71    0.18
  17  -3  -4    0.61    0.14
  17  -3   6    2.66    0.16
  17  -3  -6    2.81    0.16
  17  -2  -1    0.17    0.14
  -2 -17  -1    0.27    0.18
  -2 -17   1    0.12    0.18
  -2 -17  -3    0.02    0.17
  17  -2  -5   -0.20    0.14
  -2 -17  -5    0.01    0.16
  17  -2   7    0.42    0.11
  17  -2  -7    0.31    0.12
  -1 -17   0   -0.13    0.19
  -1 -17  -2    2.38    0.23
  -1 -17   2    2.27    0.22
  -1 -17  -4    4.92    0.26
  17  -1  -4    4.28    0.20
  -1 -17  -6   -0.10    0.15
  17  -1  -6   -0.09    0.13
  17  -1   8    4.37    0.15
  17  -1  -8    4.29    0.16
   0 -17  -1    0.91    0.21
   0 -17   1    0.89    0.21
   0 -17  -3    0.96    0.20
   0 -17   3    0.92    0.18
   0 -17  -5    2.97    0.22
  17   0  -5    2.76    0.18
  17   0  -7    3.43    0.17
   1 -17   0   -0.29    0.20
   1 -17  -2    0.21    0.19
   1 -17   2    0.21    0.18
   1 -17  -4    2.54    0.23
   1 -17   4    2.36    0.19
  17   1  -4    2.28    0.18
  17   1  -6    0.80    0.14
   1 -17  -6    0.42    0.16
  17   1   8   -0.09    0.10
  17   1  -8    0.11    0.10
   2 -17   1    0.83    0.20
   2 -17  -1    0.63    0.20
   2 -17   3    0.78    0.19
   2 -17  -3    0.74    0.19
   2 -17  -5    3.50    0.23
  17   2  -5    3.37    0.19
  17   2  -7    0.45    0.12
   3 -17   2    0.19    0.18
   3 -17  -2    0.04    0.18
   3 -17  -4    3.83    0.24
  17   3  -4    3.59    0.19
   3 -17   4    3.48    0.22
   3 -17  -6    1.17    0.16
  17   3  -6    1.28    0.15
  17   3  -8    1.66    0.12
   4 -17  -1   -0.04    0.18
   4 -17   1   -0.09    0.19
   4 -17   3   -0.19    0.17
   4 -17  -3   -0.26    0.18
   4 -17  -5    3.71    0.21
  17   4  -5    3.90    0.19
   4 -17   5    3.44    0.19
  17   4  -7    1.33    0.13
   5 -17   0   -0.25    0.18
   5 -17  -2    2.28    0.21
   5 -17   2    2.45    0.22
   5 -17  -4    1.00    0.17
  17   5  -4    1.17    0.14
   5 -17   4    1.06    0.17
   5 -17  -6   -0.15    0.11
  17   5  -6    0.08    0.11
   6 -17  -1    1.37    0.19
   6 -17   1    1.61    0.19
   6 -17   3    0.18    0.15
   6 -17  -3    0.07    0.15
   6 -17  -5    1.96    0.14
  17   6  -5    1.88    0.14
   6 -17   5    1.96    0.15
   7 -17   0   -0.15    0.15
   7 -17  -2    9.22    0.27
   7 -17   2    9.28    0.28
   7 -17   4    0.30    0.12
   7 -17  -4    0.32    0.11
   8 -17  -1    0.62    0.14
   8 -17   1    0.90    0.14
   8 -17   3    0.01    0.11
   8 -17  -3   -0.01    0.10
   9 -17   0   -0.20    0.11
   9 -17   2    3.59    0.15
  18  -7   1    0.57    0.10
  18  -7   3   -0.16    0.09
  18  -6   0    0.07    0.11
  18  -6   2    0.32    0.09
  18  -6   2    0.17    0.11
  18  -6   4    0.99    0.09
  18  -6   4    0.20    0.09
  18  -5   1    2.41    0.13
  18  -5  -1    0.89    0.13
  18  -5   3    4.76    0.16
  18  -5   5    0.18    0.08
  18  -4   0    5.40    0.17
  18  -4   2    0.29    0.12
  18  -4   4    1.47    0.13
  18  -3   1    5.48    0.19
  -3 -18  -1    4.87    0.21
  18  -3   3    5.51    0.19
  18  -3   5    2.47    0.13
  18  -2   0    7.67    0.21
  -2 -18   0    6.53    0.25
  18  -2   2    0.05    0.12
  18  -2   4    0.34    0.11
  18  -2   6   -0.02    0.09
  -1 -18  -1    4.99    0.24
  -1 -18   1    4.99    0.23
  -1 -18  -3    3.97    0.22
  18  -1   5    0.62    0.11
   0 -18   0    8.90    0.30
   0 -18  -2   -0.29    0.17
   0 -18  -4    2.59    0.19
  18   0   6    1.01    0.10
   1 -18  -1    4.89    0.24
   1 -18   1    4.34    0.23
   1 -18  -3    6.37    0.25
   1 -18   3    6.10    0.21
   1 -18  -5    3.43    0.18
  18   1  -5    3.19    0.13
   2 -18   0    1.25    0.19
   2 -18   2   -0.10    0.15
   2 -18  -4    4.63    0.21
   3 -18  -1    5.76    0.25
   3 -18   1    5.82    0.24
   3 -18  -3    1.42    0.17
   3 -18   3    1.76    0.16
   3 -18  -5    0.08    0.11
   4 -18   0    0.06    0.15
   4 -18   2   -0.05    0.14
   4 -18  -4    6.26    0.21
   4 -18   4    5.91    0.18
   5 -18  -1    7.95    0.25
   5 -18   1    8.47    0.25
   5 -18  -3    0.02    0.12
   5 -18   3    0.20    0.12
   6 -18   0    0.25    0.13
   6 -18  -2   -0.02    0.11
   6 -18   2    0.04    0.11
   7 -18  -1    0.21    0.10
   7 -18   1    0.02    0.10
  19  -2   3    0.03    0.08
  -1 -19   0   -0.11    0.10
  19  -1   2    0.16    0.08
  19   0   1    0.05    0.08
   0 -19  -1    0.11    0.11
  19   0   3    0.66    0.09
   0 -19  -3    0.74    0.11
   1 -19   0    0.02    0.11
  19   1   2   -0.10    0.08
   1 -19  -2   -0.01    0.11
   2 -19  -1    0.01    0.11
   2 -19   1    0.06    0.10
   2 -19  -3   -0.01    0.10
   3 -19   0    0.03    0.10
   3 -19  -2   -0.14    0.10
   4 -19  -1   -0.01    0.09
   0   0   0    0.00    0.00
;
_shelx_hkl_checksum              35575
_olex2_submission_special_instructions 'No special instructions were received'
