####################################################################### 
# 
# This file contains crystal structure data downloaded from the 
# Cambridge Structural Database (CSD) hosted by the Cambridge 
# Crystallographic Data Centre (CCDC).
# 
# Full information about CCDC data access policies and citation 
# guidelines are available at http://www.ccdc.cam.ac.uk/access/V1 
# 
# Audit and citation data items may have been added by the CCDC. 
# Please retain this information to preserve the provenance of 
# this file and to allow appropriate attribution of the data. 
# 
#######################################################################

data_Complex4
_audit_block_doi                 10.5517/ccdc.csd.cc1kw26q
_database_code_depnum_ccdc_archive 'CCDC 1455983'
loop_
_citation_id
_citation_doi
_citation_year
1 10.1016/j.jssc.2017.10.035 2018
_audit_update_record             
;
2017-07-18 deposited with the CCDC.	2023-04-05 downloaded from the CCDC.
;

_audit_creation_method           SHELXL-2014/7
_shelx_SHELXL_version_number     2014/7
_chemical_name_systematic        ?
_chemical_name_common            ?
_chemical_melting_point          ?
_chemical_formula_moiety         ?
_chemical_formula_sum            'C32 H18 O19 Zn4'
_chemical_formula_weight         967.94

loop_
_atom_type_symbol
_atom_type_description
_atom_type_scat_dispersion_real
_atom_type_scat_dispersion_imag
_atom_type_scat_source
C C 0.0033 0.0016 'International Tables Vol C Tables 4.2.6.8 and 6.1.1.4'
H H 0.0000 0.0000 'International Tables Vol C Tables 4.2.6.8 and 6.1.1.4'
O O 0.0106 0.0060 'International Tables Vol C Tables 4.2.6.8 and 6.1.1.4'
Zn Zn 0.2839 1.4301 'International Tables Vol C Tables 4.2.6.8 and 6.1.1.4'

_space_group_crystal_system      triclinic
_space_group_IT_number           2
_space_group_name_H-M_alt        'P -1'
_space_group_name_Hall           '-P 1'

_shelx_space_group_comment       
;
The symmetry employed for this shelxl refinement is uniquely defined
by the following loop, which should always be used as a source of
symmetry information in preference to the above space-group names.
They are only intended as comments.
;

loop_
_space_group_symop_operation_xyz
'x, y, z'
'-x, -y, -z'

_cell_length_a                   7.4216(5)
_cell_length_b                   10.0827(6)
_cell_length_c                   10.6939(6)
_cell_angle_alpha                92.8390(10)
_cell_angle_beta                 90.4810(10)
_cell_angle_gamma                93.0440(10)
_cell_volume                     798.06(8)
_cell_formula_units_Z            1
_cell_measurement_temperature    298(2)
_cell_measurement_reflns_used    10980
_cell_measurement_theta_min      1.91
_cell_measurement_theta_max      28.28

_exptl_crystal_description       bulk
_exptl_crystal_colour            colorless
_exptl_crystal_density_meas      ?
_exptl_crystal_density_method    ?
_exptl_crystal_density_diffrn    2.014
_exptl_crystal_F_000             482
_exptl_transmission_factor_min   ?
_exptl_transmission_factor_max   ?
_exptl_crystal_size_max          0.200
_exptl_crystal_size_mid          0.150
_exptl_crystal_size_min          0.100
_exptl_absorpt_coefficient_mu    3.062
_shelx_estimated_absorpt_T_min   0.580
_shelx_estimated_absorpt_T_max   0.749
_exptl_absorpt_correction_type   multi-scan
_exptl_absorpt_correction_T_min  0.5795
_exptl_absorpt_correction_T_max  0.7494
_exptl_absorpt_process_details   sadabs
_exptl_absorpt_special_details   ?
_diffrn_ambient_temperature      298(2)
_diffrn_radiation_wavelength     0.71073
_diffrn_radiation_type           MoK\a
_diffrn_source                   'fine-focus sealed tube'
_diffrn_measurement_device_type  'CCD area detector'
_diffrn_measurement_method       'phi and omega scans'
_diffrn_detector_area_resol_mean ?
_diffrn_reflns_number            10980
_diffrn_reflns_av_unetI/netI     0.0327
_diffrn_reflns_av_R_equivalents  0.0267
_diffrn_reflns_limit_h_min       -9
_diffrn_reflns_limit_h_max       9
_diffrn_reflns_limit_k_min       -13
_diffrn_reflns_limit_k_max       13
_diffrn_reflns_limit_l_min       -14
_diffrn_reflns_limit_l_max       14
_diffrn_reflns_theta_min         1.907
_diffrn_reflns_theta_max         28.397
_diffrn_reflns_theta_full        25.242
_diffrn_measured_fraction_theta_max 0.992
_diffrn_measured_fraction_theta_full 1.000
_diffrn_reflns_Laue_measured_fraction_max 0.992
_diffrn_reflns_Laue_measured_fraction_full 1.000
_diffrn_reflns_point_group_measured_fraction_max 0.992
_diffrn_reflns_point_group_measured_fraction_full 1.000
_reflns_number_total             3972
_reflns_number_gt                3186
_reflns_threshold_expression     'I > 2\s(I)'
_reflns_Friedel_coverage         0.000
_reflns_Friedel_fraction_max     .
_reflns_Friedel_fraction_full    .

_reflns_special_details          
;
 Reflections were merged by SHELXL according to the crystal
 class for the calculation of statistics and refinement.
 
 _reflns_Friedel_fraction is defined as the number of unique
 Friedel pairs measured divided by the number that would be
 possible theoretically, ignoring centric projections and
 systematic absences.
;

_computing_data_collection       'Bruker SMART'
_computing_cell_refinement       'Bruker SMART'
_computing_data_reduction        'Bruker SAINT'
_computing_structure_solution    'SHELXS-97 (Sheldrick, 2008)'
_computing_structure_refinement  'SHELXL-2014/7 (Sheldrick, 2014)'
_computing_molecular_graphics    'Bruker SHELXTL'
_computing_publication_material  'Bruker SHELXTL'
_refine_special_details          ?
_refine_ls_structure_factor_coef Fsqd
_refine_ls_matrix_type           full
_refine_ls_weighting_scheme      calc
_refine_ls_weighting_details     
'w=1/[\s^2^(Fo^2^)+(0.1190P)^2^+4.6900P] where P=(Fo^2^+2Fc^2^)/3'
_atom_sites_solution_primary     ?
_atom_sites_solution_secondary   ?
_atom_sites_solution_hydrogens   mixed
_refine_ls_hydrogen_treatment    constr
_refine_ls_extinction_method     none
_refine_ls_extinction_coef       .
_refine_ls_number_reflns         3972
_refine_ls_number_parameters     278
_refine_ls_number_restraints     23
_refine_ls_R_factor_all          0.0862
_refine_ls_R_factor_gt           0.0728
_refine_ls_wR_factor_ref         0.2144
_refine_ls_wR_factor_gt          0.2021
_refine_ls_goodness_of_fit_ref   1.063
_refine_ls_restrained_S_all      1.088
_refine_ls_shift/su_max          0.000
_refine_ls_shift/su_mean         0.000

loop_
_atom_site_label
_atom_site_type_symbol
_atom_site_fract_x
_atom_site_fract_y
_atom_site_fract_z
_atom_site_U_iso_or_equiv
_atom_site_adp_type
_atom_site_occupancy
_atom_site_site_symmetry_order
_atom_site_calc_flag
_atom_site_refinement_flags_posn
_atom_site_refinement_flags_adp
_atom_site_refinement_flags_occupancy
_atom_site_disorder_assembly
_atom_site_disorder_group
Zn1 Zn -0.5000 0.5000 0.0000 0.0230(2) Uani 1 2 d S . P . .
Zn2 Zn -0.58587(12) 0.34400(7) 0.26624(7) 0.0371(3) Uani 1 1 d . . . . .
Zn3 Zn 0.19545(17) 0.44624(13) 0.47845(12) 0.0245(3) Uani 0.5 1 d D . P . .
O1 O 0.0625(6) 0.2984(4) 0.3523(4) 0.0341(10) Uani 1 1 d . . . . .
O2 O 0.2190(6) 0.2308(4) 0.1864(4) 0.0311(9) Uani 1 1 d . . . . .
O3 O -0.4062(6) 0.3682(4) 0.1308(4) 0.0301(9) Uani 1 1 d . . . . .
O4 O -0.1095(7) 0.3877(5) 0.1052(6) 0.0500(14) Uani 1 1 d . . . . .
O5 O 0.3864(7) -0.3789(4) 0.1363(4) 0.0372(11) Uani 1 1 d . . . . .
O6 O 0.3365(6) -0.4795(4) 0.3134(4) 0.0313(9) Uani 1 1 d . . . . .
O9 O -0.2566(6) 0.6131(4) 0.0273(4) 0.0339(10) Uani 1 1 d . . . . .
H9A H -0.2104 0.6655 -0.0218 0.051 Uiso 1 1 d R U . . .
H9B H -0.1917 0.5764 0.0758 0.051 Uiso 1 1 d R U . . .
O10 O 0.0718(14) 0.4187(11) 0.6598(6) 0.049(2) Uani 0.5 1 d D U P . .
H10A H 0.0066 0.3556 0.6808 0.074 Uiso 0.5 1 d R U P . .
H10B H 0.0459 0.4843 0.7030 0.074 Uiso 0.5 1 d R U P . .
O7A O 0.3620(13) -0.3850(10) 0.5543(10) 0.055(3) Uani 0.542(12) 1 d D U P A 1
O8A O 0.5485(13) -0.2328(8) 0.5868(8) 0.041(3) Uani 0.542(12) 1 d D . P A 1
O7B O 0.6118(9) -0.3116(9) 0.4611(8) 0.025(2) Uani 0.458(12) 1 d D . P A 2
O8B O 0.4177(15) -0.2873(13) 0.6158(7) 0.041(3) Uani 0.458(12) 1 d D U P A 2
C1 C -0.0610(7) -0.0027(5) 0.2298(5) 0.0216(10) Uani 1 1 d . . . . .
C2 C -0.0747(7) 0.1333(5) 0.2130(5) 0.0212(10) Uani 1 1 d . . . . .
C3 C -0.2341(8) 0.1784(5) 0.1626(5) 0.0250(11) Uani 1 1 d . . . . .
C4 C -0.3790(9) 0.0896(6) 0.1331(6) 0.0339(13) Uani 1 1 d . . . . .
H3 H -0.4851 0.1202 0.1008 0.041 Uiso 1 1 calc R U . . .
C5 C -0.3662(9) -0.0440(6) 0.1514(7) 0.0359(14) Uani 1 1 d . . . . .
H4 H -0.4638 -0.1032 0.1318 0.043 Uiso 1 1 calc R U . . .
C6 C -0.2100(8) -0.0898(6) 0.1985(6) 0.0303(12) Uani 1 1 d . . . . .
H5 H -0.2028 -0.1802 0.2099 0.036 Uiso 1 1 calc R U . . .
C7 C 0.0975(7) -0.0608(5) 0.2898(5) 0.0207(10) Uani 1 1 d . . . . .
C8 C 0.1620(7) -0.1789(6) 0.2388(5) 0.0242(11) Uani 1 1 d . . . . .
H10 H 0.1250 -0.2096 0.1587 0.029 Uiso 1 1 calc R U . . .
C9 C 0.2804(8) -0.2515(5) 0.3056(5) 0.0257(11) Uani 1 1 d . . . . .
C10 C 0.3377(9) -0.2050(6) 0.4251(5) 0.0290(12) Uani 1 1 d . . . . .
C11 C 0.2881(8) -0.0809(5) 0.4713(5) 0.0262(11) Uani 1 1 d . . . . .
H13 H 0.3356 -0.0454 0.5473 0.031 Uiso 1 1 calc R U . . .
C12 C 0.1682(7) -0.0097(5) 0.4046(5) 0.0238(10) Uani 1 1 d . . . . .
H14 H 0.1346 0.0727 0.4366 0.029 Uiso 1 1 calc R U . . .
C13 C 0.0783(7) 0.2298(5) 0.2535(5) 0.0229(10) Uani 1 1 d . . . . .
C14 C -0.2458(9) 0.3216(6) 0.1328(6) 0.0304(12) Uani 1 1 d . . . . .
C15 C 0.3403(7) -0.3793(5) 0.2454(5) 0.0211(10) Uani 1 1 d . . . . .
C16 C 0.4540(9) -0.2898(7) 0.5036(6) 0.074(4) Uani 1 1 d D . . . .

loop_
_atom_site_aniso_label
_atom_site_aniso_U_11
_atom_site_aniso_U_22
_atom_site_aniso_U_33
_atom_site_aniso_U_23
_atom_site_aniso_U_13
_atom_site_aniso_U_12
Zn1 0.0284(5) 0.0220(4) 0.0194(4) -0.0008(3) -0.0028(3) 0.0125(3)
Zn2 0.0574(5) 0.0172(3) 0.0366(4) 0.0049(3) -0.0266(4) 0.0023(3)
Zn3 0.0255(6) 0.0217(6) 0.0266(6) -0.0003(5) 0.0008(5) 0.0041(5)
O1 0.042(2) 0.025(2) 0.035(2) -0.0054(17) 0.0010(19) -0.0015(18)
O2 0.026(2) 0.030(2) 0.038(2) 0.0040(17) 0.0054(17) 0.0029(16)
O3 0.038(2) 0.026(2) 0.028(2) 0.0030(16) -0.0088(17) 0.0198(17)
O4 0.036(3) 0.033(2) 0.083(4) 0.022(3) -0.014(3) 0.009(2)
O5 0.061(3) 0.030(2) 0.023(2) 0.0001(17) 0.0043(19) 0.025(2)
O6 0.040(2) 0.0220(19) 0.032(2) 0.0049(16) 0.0065(18) 0.0038(17)
O9 0.032(2) 0.033(2) 0.037(2) 0.0102(18) -0.0026(18) 0.0042(18)
O10 0.048(4) 0.042(4) 0.057(4) -0.004(3) 0.014(3) -0.002(3)
O7A 0.056(6) 0.063(6) 0.050(5) 0.012(5) -0.015(4) 0.023(5)
O8A 0.053(6) 0.032(5) 0.039(5) 0.007(4) -0.024(4) 0.001(4)
O7B 0.020(4) 0.027(4) 0.030(5) 0.006(3) -0.001(3) 0.015(3)
O8B 0.041(6) 0.059(6) 0.026(5) 0.003(4) -0.005(4) 0.023(5)
C1 0.024(2) 0.022(2) 0.019(2) 0.0001(18) -0.0027(19) 0.0090(19)
C2 0.022(2) 0.020(2) 0.023(2) 0.0021(19) 0.0002(19) 0.0102(19)
C3 0.031(3) 0.021(2) 0.024(3) 0.001(2) -0.007(2) 0.012(2)
C4 0.033(3) 0.029(3) 0.041(3) -0.006(2) -0.017(3) 0.014(2)
C5 0.031(3) 0.026(3) 0.050(4) -0.002(3) -0.014(3) 0.001(2)
C6 0.035(3) 0.019(2) 0.037(3) 0.000(2) -0.006(2) 0.006(2)
C7 0.024(2) 0.018(2) 0.021(2) 0.0036(18) 0.0000(19) 0.0094(18)
C8 0.027(3) 0.027(3) 0.020(2) 0.000(2) -0.004(2) 0.011(2)
C9 0.033(3) 0.023(3) 0.022(2) -0.003(2) -0.007(2) 0.016(2)
C10 0.043(3) 0.024(3) 0.021(3) -0.001(2) -0.010(2) 0.018(2)
C11 0.035(3) 0.022(3) 0.022(2) -0.002(2) -0.008(2) 0.009(2)
C12 0.029(3) 0.017(2) 0.026(3) 0.0016(19) 0.000(2) 0.007(2)
C13 0.025(2) 0.016(2) 0.029(3) 0.0082(19) 0.000(2) 0.0077(19)
C14 0.036(3) 0.024(3) 0.032(3) 0.002(2) -0.014(2) 0.012(2)
C15 0.023(2) 0.021(2) 0.020(2) -0.0012(18) -0.0045(18) 0.0096(19)
C16 0.125(9) 0.032(4) 0.066(6) -0.006(4) -0.070(6) 0.031(5)

_geom_special_details            
;
 All esds (except the esd in the dihedral angle between two l.s. planes)
 are estimated using the full covariance matrix.  The cell esds are taken
 into account individually in the estimation of esds in distances, angles
 and torsion angles; correlations between esds in cell parameters are only
 used when they are defined by crystal symmetry.  An approximate (isotropic)
 treatment of cell esds is used for estimating esds involving l.s. planes.
;

loop_
_geom_bond_atom_site_label_1
_geom_bond_atom_site_label_2
_geom_bond_distance
_geom_bond_site_symmetry_2
_geom_bond_publ_flag
Zn1 O5 2.069(4) 2 ?
Zn1 O5 2.069(4) 1_465 ?
Zn1 O9 2.095(4) . ?
Zn1 O9 2.095(4) 2_465 ?
Zn1 O3 2.115(4) 2_465 ?
Zn1 O3 2.115(4) . ?
Zn2 O8B 1.897(9) 2_556 ?
Zn2 O6 1.944(4) 1_465 ?
Zn2 O2 1.959(4) 1_455 ?
Zn2 O3 1.993(5) . ?
Zn2 O8A 2.001(8) 2_556 ?
Zn2 Zn3 2.9756(16) 1_455 ?
Zn3 O7B 2.141(7) 2_656 ?
Zn3 O1 2.153(4) . ?
Zn3 O7A 2.169(11) 1_565 ?
Zn3 O10 2.177(5) . ?
Zn3 O6 2.202(4) 1_565 ?
Zn3 Zn2 2.9756(16) 1_655 ?
O1 C13 1.243(7) . ?
O2 C13 1.271(7) . ?
O2 Zn2 1.959(4) 1_655 ?
O3 C14 1.303(7) . ?
O4 C14 1.228(8) . ?
O5 C15 1.219(7) . ?
O5 Zn1 2.069(4) 1_645 ?
O6 C15 1.273(7) . ?
O6 Zn2 1.944(4) 1_645 ?
O6 Zn3 2.202(4) 1_545 ?
O9 H9A 0.8266 . ?
O9 H9B 0.8200 . ?
O10 H10A 0.8200 . ?
O10 H10B 0.8200 . ?
O7A C16 1.292(5) . ?
O7A Zn3 2.169(10) 1_545 ?
O8A C16 1.229(5) . ?
O8A Zn2 2.001(8) 2_556 ?
O7B C16 1.285(5) . ?
O7B Zn3 2.141(7) 2_656 ?
O8B C16 1.231(5) . ?
O8B Zn2 1.897(9) 2_556 ?
C1 C2 1.401(7) . ?
C1 C6 1.403(8) . ?
C1 C7 1.495(7) . ?
C2 C3 1.403(7) . ?
C2 C13 1.503(8) . ?
C3 C4 1.386(9) . ?
C3 C14 1.500(8) . ?
C4 C5 1.379(9) . ?
C4 H3 0.9300 . ?
C5 C6 1.371(8) . ?
C5 H4 0.9300 . ?
C6 H5 0.9300 . ?
C7 C8 1.395(7) . ?
C7 C12 1.395(8) . ?
C8 C9 1.388(7) . ?
C8 H10 0.9300 . ?
C9 C10 1.394(8) . ?
C9 C15 1.501(7) . ?
C10 C11 1.392(8) . ?
C10 C16 1.522(8) . ?
C11 C12 1.387(7) . ?
C11 H13 0.9300 . ?
C12 H14 0.9300 . ?

loop_
_geom_angle_atom_site_label_1
_geom_angle_atom_site_label_2
_geom_angle_atom_site_label_3
_geom_angle
_geom_angle_site_symmetry_1
_geom_angle_site_symmetry_3
_geom_angle_publ_flag
O5 Zn1 O5 180.0 2 1_465 ?
O5 Zn1 O9 91.4(2) 2 . ?
O5 Zn1 O9 88.6(2) 1_465 . ?
O5 Zn1 O9 88.6(2) 2 2_465 ?
O5 Zn1 O9 91.4(2) 1_465 2_465 ?
O9 Zn1 O9 180.0 . 2_465 ?
O5 Zn1 O3 93.46(16) 2 2_465 ?
O5 Zn1 O3 86.54(16) 1_465 2_465 ?
O9 Zn1 O3 91.98(17) . 2_465 ?
O9 Zn1 O3 88.02(17) 2_465 2_465 ?
O5 Zn1 O3 86.54(16) 2 . ?
O5 Zn1 O3 93.46(16) 1_465 . ?
O9 Zn1 O3 88.02(17) . . ?
O9 Zn1 O3 91.98(17) 2_465 . ?
O3 Zn1 O3 180.0 2_465 . ?
O8B Zn2 O6 111.2(4) 2_556 1_465 ?
O8B Zn2 O2 125.0(4) 2_556 1_455 ?
O6 Zn2 O2 111.89(19) 1_465 1_455 ?
O8B Zn2 O3 95.1(3) 2_556 . ?
O6 Zn2 O3 106.12(17) 1_465 . ?
O2 Zn2 O3 104.13(18) 1_455 . ?
O6 Zn2 O8A 113.1(3) 1_465 2_556 ?
O2 Zn2 O8A 96.9(2) 1_455 2_556 ?
O3 Zn2 O8A 123.8(3) . 2_556 ?
O8B Zn2 Zn3 88.8(2) 2_556 1_455 ?
O6 Zn2 Zn3 47.72(13) 1_465 1_455 ?
O2 Zn2 Zn3 95.85(13) 1_455 1_455 ?
O3 Zn2 Zn3 152.35(13) . 1_455 ?
O8A Zn2 Zn3 71.3(3) 2_556 1_455 ?
O7B Zn3 O1 93.0(3) 2_656 . ?
O1 Zn3 O7A 163.1(3) . 1_565 ?
O7B Zn3 O10 85.2(4) 2_656 . ?
O1 Zn3 O10 105.5(3) . . ?
O7A Zn3 O10 91.2(4) 1_565 . ?
O7B Zn3 O6 99.4(2) 2_656 1_565 ?
O1 Zn3 O6 86.73(17) . 1_565 ?
O7A Zn3 O6 76.4(3) 1_565 1_565 ?
O10 Zn3 O6 166.8(3) . 1_565 ?
O7B Zn3 Zn2 68.4(2) 2_656 1_655 ?
O1 Zn3 Zn2 63.75(13) . 1_655 ?
O7A Zn3 Zn2 102.7(3) 1_565 1_655 ?
O10 Zn3 Zn2 150.0(3) . 1_655 ?
O6 Zn3 Zn2 40.77(11) 1_565 1_655 ?
C13 O1 Zn3 144.5(4) . . ?
C13 O2 Zn2 110.9(4) . 1_655 ?
C14 O3 Zn2 123.7(4) . . ?
C14 O3 Zn1 125.6(4) . . ?
Zn2 O3 Zn1 110.20(18) . . ?
C15 O5 Zn1 140.6(4) . 1_645 ?
C15 O6 Zn2 126.7(4) . 1_645 ?
C15 O6 Zn3 139.6(4) . 1_545 ?
Zn2 O6 Zn3 91.51(17) 1_645 1_545 ?
Zn1 O9 H9A 126.4 . . ?
Zn1 O9 H9B 109.5 . . ?
H9A O9 H9B 119.4 . . ?
Zn3 O10 H10A 127.7 . . ?
Zn3 O10 H10B 119.1 . . ?
H10A O10 H10B 107.7 . . ?
C16 O7A Zn3 133.3(8) . 1_545 ?
C16 O8A Zn2 113.4(6) . 2_556 ?
C16 O7B Zn3 129.7(6) . 2_656 ?
C16 O8B Zn2 120.2(7) . 2_556 ?
C2 C1 C6 118.6(5) . . ?
C2 C1 C7 124.1(5) . . ?
C6 C1 C7 117.0(5) . . ?
C1 C2 C3 119.5(5) . . ?
C1 C2 C13 119.8(4) . . ?
C3 C2 C13 120.7(5) . . ?
C4 C3 C2 120.2(5) . . ?
C4 C3 C14 119.2(5) . . ?
C2 C3 C14 120.4(5) . . ?
C5 C4 C3 120.1(5) . . ?
C5 C4 H3 119.9 . . ?
C3 C4 H3 119.9 . . ?
C6 C5 C4 120.2(6) . . ?
C6 C5 H4 119.9 . . ?
C4 C5 H4 119.9 . . ?
C5 C6 C1 121.2(5) . . ?
C5 C6 H5 119.4 . . ?
C1 C6 H5 119.4 . . ?
C8 C7 C12 118.5(5) . . ?
C8 C7 C1 119.5(5) . . ?
C12 C7 C1 121.5(5) . . ?
C9 C8 C7 121.1(5) . . ?
C9 C8 H10 119.4 . . ?
C7 C8 H10 119.4 . . ?
C8 C9 C10 119.6(5) . . ?
C8 C9 C15 117.9(5) . . ?
C10 C9 C15 122.5(5) . . ?
C11 C10 C9 119.5(5) . . ?
C11 C10 C16 120.6(5) . . ?
C9 C10 C16 119.9(5) . . ?
C12 C11 C10 120.3(5) . . ?
C12 C11 H13 119.8 . . ?
C10 C11 H13 119.8 . . ?
C11 C12 C7 120.5(5) . . ?
C11 C12 H14 119.8 . . ?
C7 C12 H14 119.8 . . ?
O1 C13 O2 124.6(5) . . ?
O1 C13 C2 118.3(5) . . ?
O2 C13 C2 117.0(5) . . ?
O4 C14 O3 122.6(5) . . ?
O4 C14 C3 120.3(5) . . ?
O3 C14 C3 117.0(6) . . ?
O5 C15 O6 125.7(5) . . ?
O5 C15 C9 117.8(5) . . ?
O6 C15 C9 116.5(5) . . ?
O8B C16 O7B 123.3(8) . . ?
O8A C16 O7A 106.9(8) . . ?
O8A C16 C10 117.7(7) . . ?
O8B C16 C10 114.7(7) . . ?
O7B C16 C10 116.3(6) . . ?
O7A C16 C10 112.8(7) . . ?

loop_
_geom_torsion_atom_site_label_1
_geom_torsion_atom_site_label_2
_geom_torsion_atom_site_label_3
_geom_torsion_atom_site_label_4
_geom_torsion
_geom_torsion_site_symmetry_1
_geom_torsion_site_symmetry_2
_geom_torsion_site_symmetry_3
_geom_torsion_site_symmetry_4
_geom_torsion_publ_flag
C6 C1 C2 C3 -1.6(8) . . . . ?
C7 C1 C2 C3 -176.1(5) . . . . ?
C6 C1 C2 C13 176.0(5) . . . . ?
C7 C1 C2 C13 1.6(8) . . . . ?
C1 C2 C3 C4 1.9(8) . . . . ?
C13 C2 C3 C4 -175.8(5) . . . . ?
C1 C2 C3 C14 -174.4(5) . . . . ?
C13 C2 C3 C14 8.0(8) . . . . ?
C2 C3 C4 C5 -1.0(10) . . . . ?
C14 C3 C4 C5 175.4(6) . . . . ?
C3 C4 C5 C6 -0.2(11) . . . . ?
C4 C5 C6 C1 0.5(11) . . . . ?
C2 C1 C6 C5 0.5(9) . . . . ?
C7 C1 C6 C5 175.3(6) . . . . ?
C2 C1 C7 C8 -138.8(6) . . . . ?
C6 C1 C7 C8 46.7(7) . . . . ?
C2 C1 C7 C12 49.7(8) . . . . ?
C6 C1 C7 C12 -124.9(6) . . . . ?
C12 C7 C8 C9 6.3(8) . . . . ?
C1 C7 C8 C9 -165.5(5) . . . . ?
C7 C8 C9 C10 -0.7(9) . . . . ?
C7 C8 C9 C15 178.6(5) . . . . ?
C8 C9 C10 C11 -5.6(10) . . . . ?
C15 C9 C10 C11 175.0(6) . . . . ?
C8 C9 C10 C16 174.6(6) . . . . ?
C15 C9 C10 C16 -4.7(10) . . . . ?
C9 C10 C11 C12 6.4(10) . . . . ?
C16 C10 C11 C12 -173.8(6) . . . . ?
C10 C11 C12 C7 -0.8(9) . . . . ?
C8 C7 C12 C11 -5.5(8) . . . . ?
C1 C7 C12 C11 166.1(5) . . . . ?
Zn3 O1 C13 O2 1.4(10) . . . . ?
Zn3 O1 C13 C2 178.1(5) . . . . ?
Zn2 O2 C13 O1 4.6(7) 1_655 . . . ?
Zn2 O2 C13 C2 -172.1(3) 1_655 . . . ?
C1 C2 C13 O1 -103.4(6) . . . . ?
C3 C2 C13 O1 74.3(7) . . . . ?
C1 C2 C13 O2 73.5(7) . . . . ?
C3 C2 C13 O2 -108.8(6) . . . . ?
Zn2 O3 C14 O4 -135.1(6) . . . . ?
Zn1 O3 C14 O4 36.0(9) . . . . ?
Zn2 O3 C14 C3 48.8(7) . . . . ?
Zn1 O3 C14 C3 -140.1(4) . . . . ?
C4 C3 C14 O4 -148.1(7) . . . . ?
C2 C3 C14 O4 28.2(9) . . . . ?
C4 C3 C14 O3 28.1(8) . . . . ?
C2 C3 C14 O3 -155.6(5) . . . . ?
Zn1 O5 C15 O6 -7.7(11) 1_645 . . . ?
Zn1 O5 C15 C9 173.0(5) 1_645 . . . ?
Zn2 O6 C15 O5 3.4(9) 1_645 . . . ?
Zn3 O6 C15 O5 -154.3(5) 1_545 . . . ?
Zn2 O6 C15 C9 -177.3(4) 1_645 . . . ?
Zn3 O6 C15 C9 25.0(8) 1_545 . . . ?
C8 C9 C15 O5 45.5(8) . . . . ?
C10 C9 C15 O5 -135.2(7) . . . . ?
C8 C9 C15 O6 -133.8(6) . . . . ?
C10 C9 C15 O6 45.5(8) . . . . ?
Zn2 O8A C16 O7A 20.7(10) 2_556 . . . ?
Zn2 O8A C16 C10 148.8(6) 2_556 . . . ?
Zn2 O8B C16 O7B -10.1(15) 2_556 . . . ?
Zn2 O8B C16 C10 -162.4(7) 2_556 . . . ?
Zn3 O7B C16 O8B 38.5(14) 2_656 . . . ?
Zn3 O7B C16 C10 -169.6(6) 2_656 . . . ?
Zn3 O7A C16 O8A -168.8(8) 1_545 . . . ?
Zn3 O7A C16 C10 60.3(12) 1_545 . . . ?
C11 C10 C16 O8A -22.9(11) . . . . ?
C9 C10 C16 O8A 156.9(8) . . . . ?
C11 C10 C16 O8B 39.4(11) . . . . ?
C9 C10 C16 O8B -140.9(9) . . . . ?
C11 C10 C16 O7B -114.9(8) . . . . ?
C9 C10 C16 O7B 64.8(9) . . . . ?
C11 C10 C16 O7A 102.4(9) . . . . ?
C9 C10 C16 O7A -77.8(9) . . . . ?

loop_
_geom_hbond_atom_site_label_D
_geom_hbond_atom_site_label_H
_geom_hbond_atom_site_label_A
_geom_hbond_distance_DH
_geom_hbond_distance_HA
_geom_hbond_distance_DA
_geom_hbond_angle_DHA
_geom_hbond_site_symmetry_A
O10 H10B O1 0.82 2.47 3.079(12) 131.9 2_566
O10 H10B O4 0.82 2.40 3.106(12) 145.0 2_566
O9 H9B O4 0.82 2.07 2.736(6) 138.7 .
O9 H9A O2 0.83 2.09 2.845(6) 151.1 2_565
O9 H9A O4 0.83 2.62 3.075(7) 116.4 2_565

_refine_diff_density_max         4.891
_refine_diff_density_min         -2.261
_refine_diff_density_rms         0.189

_shelx_res_file                  
;

    C4.res created by SHELXL-2014/7

TITL XL123 in P-1
CELL  0.71073    7.4216   10.0827   10.6939    92.839    90.481    93.044
ZERR        1    0.0005    0.0006    0.0006     0.001     0.001     0.001
LATT 1
SFAC C  H  O  Zn
UNIT 32  18  19  4
L.S. 20
ACTA
BOND $H
FMAP 2
PLAN 5
HTAB O10 O1_$2
HTAB O10 O4_$2
EQIV $2 -x, -y+1, -z+1
HTAB O9 O4
HTAB O9 O2_$1
HTAB O9 O4_$1
EQIV $1 -x, -y+1, -z
CONF
SIZE 0.2 0.15 0.1
DFIX 1.250 0.005 C16 O7A C16 O8A C16 O7B C16 O8B
DFIX 2.20 0.005 ZN3 O10
ISOR 0.002 O10
ISOR 0.01 O7A O8B
TEMP 25
WGHT    0.119000    4.690000
FVAR       0.25164   0.45769
ZN1   4   -0.500000    0.500000    0.000000    10.50000    0.02841    0.02199 =
         0.01943   -0.00080   -0.00283    0.01249
ZN2   4   -0.585869    0.344002    0.266244    11.00000    0.05736    0.01720 =
         0.03664    0.00487   -0.02657    0.00234
ZN3   4    0.195446    0.446237    0.478448    10.50000    0.02547    0.02169 =
         0.02656   -0.00025    0.00081    0.00412
O1    3    0.062499    0.298432    0.352269    11.00000    0.04150    0.02489 =
         0.03482   -0.00543    0.00104   -0.00149
O2    3    0.218964    0.230845    0.186401    11.00000    0.02640    0.02973 =
         0.03752    0.00400    0.00541    0.00289
O3    3   -0.406159    0.368182    0.130763    11.00000    0.03832    0.02617 =
         0.02788    0.00304   -0.00879    0.01981
O4    3   -0.109526    0.387726    0.105160    11.00000    0.03644    0.03273 =
         0.08336    0.02218   -0.01414    0.00890
O5    3    0.386410   -0.378867    0.136292    11.00000    0.06088    0.03013 =
         0.02293    0.00006    0.00428    0.02521
O6    3    0.336534   -0.479478    0.313444    11.00000    0.04011    0.02198 =
         0.03243    0.00491    0.00650    0.00383
O9    3   -0.256580    0.613080    0.027262    11.00000    0.03241    0.03330 =
         0.03703    0.01018   -0.00261    0.00420
AFIX   3
H9A   2   -0.210392    0.665539   -0.021760    11.00000   -1.50000
H9B   2   -0.191678    0.576381    0.075827    11.00000   -1.50000
AFIX   0
O10   3    0.071787    0.418733    0.659845    10.50000    0.04809    0.04247 =
         0.05674   -0.00411    0.01369   -0.00165
AFIX   3
H10A  2    0.006587    0.355621    0.680784    10.50000   -1.50000
H10B  2    0.045877    0.484331    0.703023    10.50000   -1.50000
PART 1
AFIX   0
O7A   3    0.362021   -0.384984    0.554255   -21.00000    0.05590    0.06298 =
         0.05014    0.01185   -0.01548    0.02338
O8A   3    0.548531   -0.232819    0.586823   -21.00000    0.05319    0.03221 =
         0.03910    0.00743   -0.02404    0.00142
PART 2
O7B   3    0.611786   -0.311623    0.461124    21.00000    0.01986    0.02718 =
         0.03017    0.00626   -0.00051    0.01493
O8B   3    0.417687   -0.287259    0.615804    21.00000    0.04087    0.05931 =
         0.02622    0.00314   -0.00459    0.02270
PART 0
C1    1   -0.060958   -0.002691    0.229812    11.00000    0.02440    0.02158 =
         0.01948    0.00011   -0.00274    0.00903
C2    1   -0.074690    0.133296    0.212979    11.00000    0.02191    0.01993 =
         0.02294    0.00212    0.00024    0.01021
C3    1   -0.234114    0.178431    0.162559    11.00000    0.03075    0.02135 =
         0.02382    0.00093   -0.00735    0.01194
C4    1   -0.379023    0.089613    0.133063    11.00000    0.03253    0.02858 =
         0.04086   -0.00600   -0.01653    0.01363
AFIX  43
H3    2   -0.485074    0.120184    0.100848    11.00000   -1.20000
AFIX   0
C5    1   -0.366168   -0.043983    0.151414    11.00000    0.03093    0.02586 =
         0.05039   -0.00196   -0.01363    0.00131
AFIX  43
H4    2   -0.463779   -0.103240    0.131782    11.00000   -1.20000
AFIX   0
C6    1   -0.210049   -0.089764    0.198483    11.00000    0.03488    0.01872 =
         0.03742    0.00029   -0.00618    0.00550
AFIX  43
H5    2   -0.202813   -0.180183    0.209861    11.00000   -1.20000
AFIX   0
C7    1    0.097503   -0.060818    0.289754    11.00000    0.02399    0.01778 =
         0.02150    0.00364    0.00000    0.00943
C8    1    0.161985   -0.178944    0.238817    11.00000    0.02670    0.02654 =
         0.02014    0.00027   -0.00378    0.01093
AFIX  43
H10   2    0.125042   -0.209610    0.158740    11.00000   -1.20000
AFIX   0
C9    1    0.280386   -0.251549    0.305600    11.00000    0.03344    0.02275 =
         0.02174   -0.00341   -0.00667    0.01571
C10   1    0.337650   -0.205015    0.425115    11.00000    0.04250    0.02448 =
         0.02141   -0.00070   -0.01009    0.01757
C11   1    0.288076   -0.080858    0.471317    11.00000    0.03530    0.02194 =
         0.02163   -0.00160   -0.00770    0.00860
AFIX  43
H13   2    0.335575   -0.045446    0.547289    11.00000   -1.20000
AFIX   0
C12   1    0.168163   -0.009692    0.404584    11.00000    0.02913    0.01707 =
         0.02576    0.00164   -0.00033    0.00731
AFIX  43
H14   2    0.134619    0.072713    0.436624    11.00000   -1.20000
AFIX   0
C13   1    0.078350    0.229838    0.253508    11.00000    0.02525    0.01568 =
         0.02923    0.00816   -0.00019    0.00771
C14   1   -0.245786    0.321588    0.132756    11.00000    0.03622    0.02419 =
         0.03174    0.00245   -0.01367    0.01231
C15   1    0.340294   -0.379307    0.245439    11.00000    0.02298    0.02061 =
         0.02037   -0.00116   -0.00452    0.00964
C16   1    0.454005   -0.289793    0.503592    11.00000    0.12501    0.03198 =
         0.06647   -0.00560   -0.06985    0.03098
HKLF 4

REM  XL123 in P-1
REM R1 =  0.0728 for    3186 Fo > 4sig(Fo)  and  0.0862 for all    3972 data
REM    278 parameters refined using     23 restraints

END

WGHT      0.1190      4.6900

REM Highest difference peak  4.891,  deepest hole -2.261,  1-sigma level  0.189
Q1    1   0.0421  0.4517  0.5633  11.00000  0.05    4.89
Q2    1   0.3225 -0.4083  0.5694  11.00000  0.05    2.25
Q3    1   0.4143 -0.2789  0.5376  11.00000  0.05    1.48
Q4    1   0.4463 -0.2609  0.5207  11.00000  0.05    1.43
Q5    1   0.6539 -0.3153  0.4465  11.00000  0.05    1.23
;
_shelx_res_checksum              28262

_shelx_hkl_file                  
;
  -1   0   0  292.17    3.86
  -1   0   0  291.77    3.92
   1   0   0  288.02    4.12
   1   0   0  291.03    3.88
  -2   0   0    0.35    0.23
  -2   0   0    0.81    0.25
   2   0   0    0.15    0.26
   2   0   0   -0.10    0.20
  -3   0   0   11.71    0.68
  -3   0   0   11.50    0.63
   3   0   0   10.96    0.71
   3   0   0   10.29    0.62
  -4   0   0   26.90    1.13
  -4   0   0   25.32    1.04
   4   0   0   26.84    1.29
   4   0   0   25.06    1.07
  -5   0   0   32.20    1.39
  -5   0   0   31.05    1.33
   5   0   0   30.96    1.33
   5   0   0   32.24    1.56
  -6   0   0   16.49    1.15
  -6   0   0   14.02    1.20
   6   0   0   17.79    1.22
   6   0   0   19.09    1.52
  -7   0   0   36.87    1.77
  -7   0   0   35.63    1.69
   7   0   0   36.15    1.98
   7   0   0   39.24    1.85
  -8   0   0    1.00    0.72
   8   0   0    0.35    0.77
   8   0   0    1.29    0.73
  -9   0   0    4.18    0.99
   9   0   0    3.90    1.16
   9  -1   0    1.43    0.93
  -9   1   0    2.37    0.88
   8  -1   0    0.99    0.74
   8  -1   0    0.27    0.80
  -8   1   0    0.16    0.64
   7  -1   0    5.49    1.01
   7  -1   0    4.52    0.88
  -7   1   0    5.34    0.95
   6  -1   0    2.85    0.78
   6  -1   0    4.36    0.78
  -6   1   0    3.43    0.76
  -6   1   0    3.80    0.67
   5  -1   0   10.26    0.94
   5  -1   0   11.40    1.07
  -5   1   0   11.07    0.98
  -5   1   0   10.75    0.79
   4  -1   0   80.81    2.09
   4  -1   0   84.80    2.22
  -4   1   0   79.33    2.08
  -4   1   0   81.93    1.81
   3  -1   0   57.27    1.54
   3  -1   0   56.90    1.60
  -3   1   0   60.61    1.57
  -3   1   0   59.93    1.28
   2  -1   0   14.99    0.70
   2  -1   0   14.13    0.72
  -2   1   0   14.17    0.66
  -2   1   0   15.19    0.48
   1  -1   0  239.23    3.50
  -1   1   0  229.89    3.07
  -1   1   0  238.31    3.33
   0  -1   0  521.08    7.09
  -1  -1   0  438.32    5.56
  -1  -1   0  432.67    5.96
   1   1   0  439.04    5.66
   1   1   0  433.40    6.12
  -2  -1   0   92.07    1.83
  -2  -1   0   93.14    1.65
   2   1   0   89.14    1.88
   2   1   0   92.13    1.64
  -3  -1   0    0.93    0.28
  -3  -1   0    1.15    0.34
   3   1   0    0.95    0.30
   3   1   0    0.71    0.35
  -4  -1   0   32.33    1.17
  -4  -1   0   33.25    1.30
   4   1   0   31.25    1.14
   4   1   0   31.03    1.41
  -5  -1   0   66.92    2.11
  -5  -1   0   70.44    2.01
   5   1   0   69.97    2.30
   5   1   0   72.08    1.98
  -6  -1   0   25.51    1.34
  -6  -1   0   23.98    1.44
   6   1   0   23.97    1.64
   6   1   0   26.52    1.40
  -7  -1   0    5.09    0.90
  -7  -1   0    3.59    0.77
   7   1   0    3.90    0.93
   7   1   0    4.13    0.82
  -8  -1   0   -0.75    0.49
   8   1   0    1.73    0.91
  -9  -1   0    2.96    0.90
   9   1   0    3.44    1.16
   9  -2   0    1.01    0.87
   9  -2   0   -0.19    0.70
  -9   2   0    1.16    0.81
   8  -2   0    1.48    0.85
   8  -2   0    1.59    0.77
  -8   2   0    2.22    0.81
   7  -2   0   22.30    1.60
   7  -2   0   24.67    1.59
  -7   2   0   23.36    1.58
   6  -2   0   59.31    2.24
   6  -2   0   54.89    2.22
  -6   2   0   54.69    2.16
   5  -2   0   95.46    2.65
   5  -2   0   99.02    2.70
  -5   2   0   95.78    2.64
  -5   2   0   93.33    2.04
   4  -2   0   40.13    1.54
   4  -2   0   43.12    1.53
  -4   2   0   42.77    1.54
  -4   2   0   41.68    1.08
   3  -2   0   73.88    1.95
   3  -2   0   78.08    1.94
  -3   2   0   74.76    1.90
  -3   2   0   77.31    1.36
   2  -2   0    0.98    0.32
   2  -2   0    0.64    0.30
  -2   2   0    0.87    0.29
  -2   2   0    1.53    0.17
   1  -2   0   35.97    0.74
  -1   2   0   39.08    0.97
   0  -2   0    5.59    0.36
   0  -2   0    5.05    0.32
   0  -2   0    4.74    0.42
   0  -2   0    5.41    0.38
  -1  -2   0  169.09    2.86
  -1  -2   0  169.51    2.91
  -1  -2   0  172.82    2.39
   1   2   0  176.27    2.56
  -2  -2   0   10.05    0.46
  -2  -2   0    9.42    0.62
   2   2   0   11.26    0.51
   2   2   0   10.08    0.69
  -3  -2   0    0.51    0.31
  -3  -2   0    0.43    0.23
   3   2   0    0.31    0.25
   3   2   0    0.48    0.36
  -4  -2   0    5.50    0.59
  -4  -2   0    3.71    0.63
   4   2   0    6.01    0.76
   4   2   0    5.21    0.57
  -5  -2   0    1.67    0.49
  -5  -2   0    1.09    0.55
   5   2   0    1.93    0.49
   5   2   0    0.75    0.58
  -6  -2   0   91.05    2.45
  -6  -2   0   90.15    2.81
   6   2   0   87.89    2.93
   6   2   0   89.33    2.40
  -7  -2   0   22.11    1.62
  -7  -2   0   23.59    1.45
   7   2   0   23.95    1.42
   7   2   0   21.56    1.82
  -8  -2   0    6.61    1.18
  -8  -2   0    6.36    1.04
   8   2   0    7.51    1.30
  -9  -2   0    9.78    1.30
   9   2   0    9.08    1.56
   9  -3   0   -0.24    0.75
  -9   3   0   -0.72    0.62
   8  -3   0    0.06    0.69
   8  -3   0   -0.17    0.67
  -8   3   0    0.13    0.62
   7  -3   0   70.35    2.71
   7  -3   0   71.79    2.72
  -7   3   0   71.46    2.74
   6  -3   0   97.53    2.99
   6  -3   0  100.38    3.03
  -6   3   0   95.86    2.97
   5  -3   0  126.07    3.19
   5  -3   0  123.55    3.21
  -5   3   0  120.19    3.15
   4  -3   0  429.56    7.07
   4  -3   0  425.15    7.07
  -4   3   0  418.75    5.80
  -4   3   0  428.72    6.97
   3  -3   0    0.49    0.34
   3  -3   0    1.23    0.40
  -3   3   0    0.65    0.16
  -3   3   0    1.64    0.44
  -2   3   0   54.86    1.01
  -2   3   0   56.71    1.51
   1  -3   0   66.90    1.79
   1  -3   0   69.28    1.34
  -1   3   0   72.22    1.56
   0  -3   0  152.67    2.62
   0  -3   0  153.07    2.41
   0  -3   0  147.05    2.89
   0  -3   0  154.15    2.60
  -1  -3   0   71.82    1.77
  -1  -3   0   69.88    1.67
  -1  -3   0   71.74    1.23
   1   3   0   71.12    1.43
  -2  -3   0    9.63    0.78
  -2  -3   0   11.22    0.48
   2   3   0   10.06    0.53
   2   3   0    9.98    0.76
  -3  -3   0  315.16    5.43
  -3  -3   0  317.09    4.60
   3   3   0  315.14    4.78
   3   3   0  311.50    5.48
  -4  -3   0   15.04    1.06
  -4  -3   0   15.08    0.84
   4   3   0   17.05    0.90
   4   3   0   17.19    1.14
  -5  -3   0   34.87    1.35
  -5  -3   0   37.73    1.79
   5   3   0   31.54    1.67
   5   3   0   33.26    1.34
  -6  -3   0  119.29    3.44
  -6  -3   0  120.18    2.90
   6   3   0  117.91    3.52
   6   3   0  119.09    2.87
  -7  -3   0    9.64    1.07
  -7  -3   0    9.44    1.33
   7   3   0   13.52    1.50
  -8  -3   0    2.08    0.92
   8   3   0    2.52    1.05
   9   3   0    1.22    1.03
   9  -4   0    0.35    0.83
  -9   4   0   -0.34    0.76
   8  -4   0    0.77    0.76
   8  -4   0    0.61    0.76
  -8   4   0    1.89    0.85
   7  -4   0   32.13    1.93
   7  -4   0   38.43    2.12
  -7   4   0   34.61    2.02
   6  -4   0   63.46    2.52
   6  -4   0   63.53    2.43
  -6   4   0   65.33    2.51
   5  -4   0  107.74    3.10
   5  -4   0  106.60    2.98
  -5   4   0  102.27    2.99
   4  -4   0  140.43    3.38
   4  -4   0  143.57    3.46
  -4   4   0  146.03    3.39
   3  -4   0    1.11    0.47
   3  -4   0    2.02    0.51
  -3   4   0    2.36    0.51
  -3   4   0    2.08    0.22
   2  -4   0   65.94    1.99
   2  -4   0   60.60    1.26
  -2   4   0   65.15    1.76
   1  -4   0   30.38    0.92
   1  -4   0   30.12    1.34
  -1   4   0   29.12    1.02
   0  -4   0   13.35    0.70
   0  -4   0   12.83    0.62
   0  -4   0   14.00    0.94
   0   4   0   12.00    0.67
  -1  -4   0   15.20    0.82
  -1  -4   0   15.76    0.96
  -1  -4   0   15.41    0.55
   1   4   0   15.24    0.69
  -2  -4   0  157.09    2.46
  -2  -4   0  156.96    3.24
   2   4   0  155.71    3.31
   2   4   0  157.06    2.75
  -3  -4   0  235.46    4.59
  -3  -4   0  237.27    3.65
   3   4   0  237.29    4.61
   3   4   0  242.26    3.93
  -4  -4   0   66.61    1.63
  -4  -4   0   62.11    2.18
   4   4   0   64.85    1.74
   4   4   0   64.26    2.23
  -5  -4   0   22.03    1.11
  -5  -4   0   24.35    1.51
   5   4   0   20.39    1.54
   5   4   0   18.85    1.10
  -6  -4   0   44.51    2.21
  -6  -4   0   47.60    1.71
   6   4   0   45.23    2.19
  -7  -4   0    6.88    1.24
   7   4   0    5.72    1.18
  -8  -4   0    1.47    0.92
   8   4   0    0.42    0.90
  -9  -4   0    4.66    1.32
   9   4   0    5.47    1.42
   9  -5   0    1.24    0.96
  -9   5   0    1.96    0.99
   8  -5   0   27.05    2.26
   8  -5   0   27.41    2.00
  -8   5   0   23.70    2.10
   7  -5   0   14.23    1.54
   7  -5   0   15.83    1.69
  -7   5   0   17.39    1.71
   6  -5   0   15.68    1.54
   6  -5   0   20.77    1.69
  -6   5   0   17.03    1.56
   5  -5   0    4.26    0.89
   5  -5   0    2.56    0.77
  -5   5   0    3.44    0.85
   4  -5   0   32.15    1.70
   4  -5   0   31.11    1.66
  -4   5   0   32.41    1.58
   3  -5   0   12.77    1.16
   3  -5   0   10.25    1.05
  -3   5   0   11.08    0.50
  -3   5   0   15.29    1.17
   2  -5   0   14.87    1.02
   2  -5   0   15.29    1.22
   2  -5   0   15.38    0.69
  -2   5   0   15.44    0.91
   1  -5   0  167.18    3.00
   1  -5   0  166.21    3.73
   1  -5   0  169.37    3.44
  -1   5   0  167.17    3.09
   0  -5   0    1.00    0.31
   0  -5   0    0.81    0.44
   0  -5   0    1.13    0.36
   0   5   0    0.94    0.34
  -1  -5   0   31.37    1.32
  -1  -5   0   34.91    1.48
  -1  -5   0   32.12    0.93
   1   5   0   32.27    1.13
  -2  -5   0  432.75    7.29
  -2  -5   0  418.43    7.00
  -2  -5   0  424.25    5.81
   2   5   0  421.73    6.29
  -3  -5   0   63.92    1.44
  -3  -5   0   64.29    2.17
   3   5   0   63.32    1.70
   3   5   0   64.92    2.23
  -4  -5   0   14.70    0.80
  -4  -5   0   14.63    1.34
   4   5   0   17.54    1.47
   4   5   0   14.30    0.94
  -5  -5   0   11.71    1.36
   5   5   0   10.67    1.26
   5   5   0   12.22    1.00
  -6  -5   0   24.46    1.74
   6   5   0   26.07    1.83
  -7  -5   0    2.22    0.95
   7   5   0    2.65    0.96
  -8  -5   0    4.64    1.18
   8   5   0    3.49    1.17
   9  -6   0    2.34    1.08
  -9   6   0    2.12    1.08
   8  -6   0    5.24    1.22
  -8   6   0    6.41    1.29
   7  -6   0    4.66    1.06
   7  -6   0    4.32    1.05
  -7   6   0    3.09    0.97
   6  -6   0    4.23    0.99
   6  -6   0    3.20    0.92
  -6   6   0    4.51    0.98
   5  -6   0   31.93    1.89
   5  -6   0   34.93    1.91
  -5   6   0   29.61    1.75
   4  -6   0    0.06    0.58
   4  -6   0    0.68    0.59
  -4   6   0    0.06    0.50
   3  -6   0    9.05    1.08
   3  -6   0    7.99    1.06
  -3   6   0    9.10    0.96
  -3   6   0    8.85    0.56
   2  -6   0   25.39    1.42
   2  -6   0   22.85    1.43
   2  -6   0   21.59    0.93
  -2   6   0   22.82    1.18
   1  -6   0  221.48    4.75
   1  -6   0  219.37    3.89
   1  -6   0  218.12    4.35
  -1   6   0  219.03    3.90
   0  -6   0   56.27    1.52
   0  -6   0   56.74    1.74
   0  -6   0   58.17    2.14
   0   6   0   54.84    1.74
  -1  -6   0   49.11    1.28
  -1  -6   0   49.43    1.96
  -1  -6   0   50.87    1.77
   1   6   0   50.76    1.58
  -2  -6   0  212.56    4.44
  -2  -6   0  209.59    4.63
  -2  -6   0  214.38    3.33
   2   6   0  214.79    3.84
  -3  -6   0    3.99    0.81
   3   6   0    6.10    0.93
   3   6   0    5.48    0.66
  -4  -6   0    1.60    0.71
   4   6   0    1.35    0.69
   4   6   0    1.11    0.52
  -5  -6   0    2.06    0.76
   5   6   0    1.11    0.69
  -6  -6   0    2.18    0.85
   6   6   0    2.01    0.90
  -7  -6   0    9.95    1.47
   7   6   0    9.51    1.46
  -8  -6   0    0.00    0.81
   8   6   0   -1.42    0.85
   8  -7   0    7.21    1.38
  -8   7   0    6.39    1.35
   7  -7   0   -0.78    0.68
   7  -7   0   -0.12    0.65
  -7   7   0    0.50    0.76
   6  -7   0    8.22    1.29
   6  -7   0    4.89    1.05
  -6   7   0    8.02    1.22
   5  -7   0    0.18    0.60
   5  -7   0    0.32    0.62
  -5   7   0    0.31    0.64
   4  -7   0   -0.10    0.49
   4  -7   0    2.17    0.75
  -4   7   0    0.19    0.58
   3  -7   0   66.88    2.55
   3  -7   0   65.04    2.51
  -3   7   0   64.92    2.22
   2  -7   0  119.29    2.54
   2  -7   0  115.57    3.22
   2  -7   0  121.28    3.47
  -2   7   0  115.94    2.84
   1  -7   0  349.71    5.76
   1  -7   0  342.77    6.29
   1  -7   0  342.65    6.75
  -1   7   0  343.71    5.60
   0  -7   0  149.10    3.29
   0  -7   0  149.33    3.92
   0   7   0  147.56    2.89
   0   7   0  150.01    3.36
  -1  -7   0  118.21    3.40
  -1  -7   0  117.10    2.35
  -1  -7   0  114.03    3.00
   1   7   0  116.43    2.77
  -2  -7   0    2.71    0.76
  -2  -7   0    1.57    0.60
   2   7   0    2.48    0.54
  -3  -7   0   55.24    2.26
   3   7   0   51.63    1.73
   3   7   0   56.01    2.42
  -4  -7   0    8.19    1.15
   4   7   0    7.90    0.86
   4   7   0    6.11    1.06
  -5  -7   0    1.18    0.75
   5   7   0    3.43    0.99
  -6  -7   0    0.63    0.75
   6   7   0   -0.14    0.73
  -7  -7   0    2.39    0.97
   7   7   0    0.69    0.93
  -8  -7   0    8.82    1.64
   8   7   0    8.26    1.61
   8  -8   0    4.66    1.29
  -8   8   0    3.18    1.19
   7  -8   0    0.01    0.71
   7  -8   0    0.46    0.85
  -7   8   0    0.38    0.80
   6  -8   0   -0.10    0.74
   6  -8   0   -0.30    0.62
  -6   8   0   -0.67    0.55
   5  -8   0   67.93    2.87
   5  -8   0   69.33    2.93
  -5   8   0   67.03    2.69
   4  -8   0   93.23    3.29
   4  -8   0   98.51    3.33
  -4   8   0   95.41    3.02
   3  -8   0   33.07    1.88
   3  -8   0   38.17    2.08
  -3   8   0   38.73    1.78
   2  -8   0   63.24    2.62
   2  -8   0   55.94    2.32
  -2   8   0   57.24    1.97
   1  -8   0  135.39    3.14
   1  -8   0  131.64    3.85
  -1   8   0  140.24    3.52
  -1   8   0  136.62    3.01
   0  -8   0   11.90    1.13
   0  -8   0   11.57    1.37
   0   8   0   11.33    1.09
   0   8   0   12.43    0.93
  -1  -8   0    0.34    0.58
  -1  -8   0    1.66    0.63
   1   8   0    0.74    0.50
  -2  -8   0   15.15    1.55
  -2  -8   0   14.15    1.36
   2   8   0   16.27    1.10
  -3  -8   0   21.06    1.53
   3   8   0   24.08    1.77
   3   8   0   21.94    1.29
  -4  -8   0   27.21    1.80
   4   8   0   28.46    2.00
  -5  -8   0    2.81    0.91
   5   8   0    5.48    1.23
  -6  -8   0    3.16    0.99
   6   8   0    2.33    1.10
  -7  -8   0    0.67    0.86
   7   8   0    1.11    1.00
   7  -9   0    0.30    0.80
  -7   9   0    0.01    0.82
   6  -9   0   14.37    1.77
   6  -9   0   14.36    1.76
  -6   9   0   14.29    1.65
   5  -9   0   76.79    3.23
   5  -9   0   77.71    3.19
  -5   9   0   75.39    2.91
   4  -9   0   26.28    2.12
   4  -9   0   29.55    2.01
  -4   9   0   27.75    1.72
   3  -9   0    0.99    0.77
   3  -9   0    1.40    0.77
  -3   9   0    0.56    0.54
   2  -9   0   29.59    1.81
   2  -9   0   30.21    1.97
  -2   9   0   30.87    1.55
  -2   9   0   27.01    1.69
   1  -9   0   11.19    1.11
   1  -9   0   13.41    1.51
  -1   9   0   12.17    1.05
  -1   9   0   11.71    1.28
   0  -9   0    5.73    0.89
   0  -9   0    5.03    1.02
   0   9   0    6.71    0.94
  -1  -9   0    0.01    0.54
  -1  -9   0   -0.42    0.56
   1   9   0    0.53    0.48
  -2  -9   0    1.64    0.81
  -2  -9   0    0.65    0.61
   2   9   0    2.38    0.64
  -3  -9   0    3.03    0.88
   3   9   0    3.50    0.73
   3   9   0    3.86    1.05
  -4  -9   0    1.77    0.83
   4   9   0    1.36    0.93
  -5  -9   0   26.87    1.99
   5   9   0   30.12    2.28
  -6  -9   0    5.39    1.23
   6   9   0    4.63    1.26
  -7  -9   0    1.28    1.03
   7   9   0    3.41    1.26
  -7  10   0   19.20    2.03
   6 -10   0   28.07    2.44
   6 -10   0   26.33    2.34
  -6  10   0   28.24    2.27
   5 -10   0   46.60    2.57
   5 -10   0   44.14    2.59
  -5  10   0   44.33    2.33
   4 -10   0    2.10    0.90
   4 -10   0    2.27    0.96
  -4  10   0    1.57    0.72
   3 -10   0   19.51    1.86
   3 -10   0   17.71    1.78
  -3  10   0   20.43    1.63
   2 -10   0    6.37    1.22
  -2  10   0    5.61    1.01
   1 -10   0   42.88    2.43
  -1  10   0   39.06    2.03
   0 -10   0    4.31    0.89
   0 -10   0    3.01    1.00
   0  10   0    3.25    0.79
  -1 -10   0   11.95    1.36
  -1 -10   0   10.83    1.48
   1  10   0   11.04    1.20
  -2 -10   0   15.42    1.59
  -2 -10   0   11.07    1.54
   2  10   0   12.52    1.26
  -3 -10   0    7.65    1.30
   3  10   0    8.50    1.48
  -4 -10   0   10.65    1.50
   4  10   0    9.61    1.58
  -5 -10   0   23.25    2.22
   5  10   0   19.97    2.24
  -6 -10   0    2.74    1.12
   6  10   0    4.45    1.43
   6 -11   0    6.13    1.40
  -6  11   0    6.48    1.32
   5 -11   0   61.04    3.07
   5 -11   0   53.21    2.88
  -5  11   0   57.18    2.66
   4 -11   0    4.45    1.15
   4 -11   0    3.47    1.13
   3 -11   0   28.89    2.15
  -3  11   0   27.62    1.92
   2 -11   0    0.96    0.85
  -2  11   0    1.53    0.76
   1 -11   0    9.83    1.47
  -1  11   0   11.77    1.42
   0 -11   0    4.54    1.11
   0  11   0    2.95    0.81
  -1 -11   0   21.22    2.09
  -1 -11   0   25.07    1.79
   1  11   0   21.22    1.74
  -2 -11   0   56.58    2.69
  -2 -11   0   44.77    2.79
   2  11   0   52.76    2.25
   2  11   0   50.58    2.90
  -3 -11   0   12.85    1.62
   3  11   0   10.11    1.69
  -4 -11   0   15.59    1.87
   4  11   0   21.54    2.33
  -5 -11   0    7.21    1.47
   5  11   0    6.57    1.60
   4 -12   0    5.85    1.36
  -4  12   0    4.75    1.16
   3 -12   0    3.61    1.15
  -3  12   0    0.41    0.80
   2 -12   0   -0.07    0.76
  -2  12   0   -0.52    0.61
   1 -12   0    1.29    0.86
  -1  12   0    1.88    0.87
   0 -12   0    8.62    1.52
   0  12   0   10.24    1.40
  -1 -12   0   27.14    2.49
  -1 -12   0   29.70    2.04
   1  12   0   29.57    1.89
  -2 -12   0   13.59    1.70
   2  12   0   11.20    1.77
  -3 -12   0    8.53    1.48
   3  12   0    9.77    1.78
  -4 -12   0    4.95    1.26
   4  12   0    4.88    1.50
  -3  13   0   31.43    2.56
   2 -13   0   26.53    2.45
  -2  13   0   28.61    2.36
   1 -13   0   11.73    1.80
  -1  13   0   10.84    1.58
   0 -13   0    1.37    1.04
   0  13   0    1.86    0.88
  -1 -13   0   44.10    2.96
  -2 -13   0    7.64    1.47
   2  13   0    4.22    1.37
   2  13  -1    1.32    1.11
  -2 -13   1    0.73    1.02
  -2 -13   1    0.92    0.95
   1  13  -1    6.47    1.23
  -1 -13   1    4.67    1.40
   0  13  -1    2.94    1.05
   0 -13   1    5.41    1.37
  -1  13  -1    3.69    1.14
   1 -13   1    4.22    1.22
  -2  13  -1    5.90    1.32
   2 -13   1    4.27    1.31
  -3  13  -1   18.96    2.05
   4  12  -1    4.07    1.38
  -4 -12   1    7.73    1.49
   3  12  -1   -0.59    0.92
  -3 -12   1    0.44    0.85
   2  12  -1   -0.18    0.64
  -2 -12   1    0.79    0.82
  -2 -12   1    0.03    0.83
   1  12  -1    3.77    0.96
  -1 -12   1    3.94    1.18
  -1 -12   1    6.33    1.19
   0  12  -1   14.85    1.57
   0 -12   1   14.08    1.81
  -1  12  -1   53.39    2.61
   1 -12   1   55.41    2.95
  -2  12  -1   22.35    2.04
   2 -12   1   23.01    2.24
  -3  12  -1    7.62    1.36
   3 -12   1    4.64    1.21
  -4  12  -1   13.75    1.75
   4 -12   1   14.64    1.90
   5  11  -1   13.62    2.00
  -5 -11   1    9.57    1.60
   4  11  -1    0.14    0.95
  -4 -11   1    0.52    0.80
   3  11  -1   12.67    1.83
  -3 -11   1   12.63    1.63
   2  11  -1    1.38    0.73
  -2 -11   1    1.88    0.83
  -2 -11   1    2.55    0.97
   1  11  -1   19.20    1.67
  -1 -11   1   14.56    1.77
  -1 -11   1   16.05    1.62
   0  11  -1   67.35    2.73
   0 -11   1   71.77    3.24
  -1  11  -1   63.03    2.72
   1 -11   1   65.78    3.11
  -2  11  -1    0.09    0.63
   2 -11   1    0.11    0.71
  -3  11  -1    3.47    1.01
   3 -11   1    3.84    1.09
  -4  11  -1    9.22    1.46
   4 -11   1    7.70    1.43
  -5  11  -1    0.23    0.76
   5 -11   1    0.81    0.86
   5 -11   1    0.57    0.91
  -6  11  -1    2.94    0.95
   6 -11   1    0.29    0.86
   6 -11   1    0.28    0.94
   6  10  -1    1.11    1.08
  -6 -10   1    0.17    0.84
   5  10  -1   -0.94    0.77
  -5 -10   1    0.21    0.78
   4  10  -1   18.76    2.07
  -4 -10   1   20.99    1.99
   3  10  -1   60.55    2.33
   3  10  -1   52.97    2.81
  -3 -10   1   57.79    2.70
   2  10  -1    7.94    1.06
  -2 -10   1    5.83    1.18
  -2 -10   1    6.62    1.14
   1  10  -1   24.08    1.57
  -1 -10   1   27.40    1.74
  -1 -10   1   23.83    2.15
   0  10  -1   85.62    2.94
   0 -10   1   89.29    3.46
   0 -10   1   88.98    2.82
  -1  10  -1    0.26    0.60
   1 -10   1    0.39    0.70
  -2  10  -1    5.54    1.00
   2 -10   1    4.00    1.06
  -3  10  -1   -0.10    0.57
  -3  10  -1    0.03    0.54
   3 -10   1   -0.92    0.63
  -4  10  -1    0.25    0.60
   4 -10   1    0.90    0.76
   4 -10   1   -0.20    0.76
  -5  10  -1    0.36    0.68
   5 -10   1    0.18    0.74
   5 -10   1    1.02    0.92
  -6  10  -1    2.86    0.99
   6 -10   1    2.59    1.07
   6 -10   1    1.86    1.04
  -7  10  -1   34.77    2.30
   7   9  -1    1.10    1.10
  -7  -9   1   -0.44    0.83
   6   9  -1   12.07    1.75
  -6  -9   1   10.90    1.57
   5   9  -1    5.90    1.26
  -5  -9   1    3.44    0.99
   4   9  -1   44.93    2.55
  -4  -9   1   52.96    2.58
   3   9  -1   27.80    1.98
   3   9  -1   25.74    1.49
  -3  -9   1   27.69    1.81
   2   9  -1    5.14    0.84
  -2  -9   1    5.37    0.98
  -2  -9   1    5.71    1.11
   1   9  -1   13.74    1.28
  -1  -9   1   13.96    1.35
  -1  -9   1   11.21    1.41
   0   9  -1   18.96    1.53
   0  -9   1   19.27    1.78
   0  -9   1   21.31    1.37
  -1   9  -1    5.69    0.99
   1  -9   1    7.95    0.91
   1  -9   1    6.68    1.22
  -2   9  -1   52.93    2.30
  -2   9  -1   56.73    1.98
   2  -9   1   56.31    2.66
  -3   9  -1    2.51    0.72
   3  -9   1    1.74    0.80
  -4   9  -1    3.70    0.88
   4  -9   1    5.70    1.11
   4  -9   1    4.57    1.10
  -5   9  -1   -0.33    0.53
   5  -9   1    0.39    0.74
   5  -9   1   -0.57    0.59
  -6   9  -1   23.51    2.05
   6  -9   1   23.42    2.21
   6  -9   1   20.45    2.04
  -7   9  -1   18.35    1.94
   7  -9   1   23.86    2.34
   7  -9   1   19.74    2.07
   7   8  -1   11.53    1.74
  -7  -8   1   10.14    1.62
   6   8  -1    8.86    1.47
  -6  -8   1    7.89    1.34
   5   8  -1   18.76    1.90
  -5  -8   1   19.69    1.89
   4   8  -1   45.07    2.37
   4   8  -1   39.28    1.76
  -4  -8   1   37.89    2.16
   3   8  -1   34.45    1.59
   3   8  -1   35.36    2.04
  -3  -8   1   33.93    1.96
   2   8  -1   10.86    1.07
  -2  -8   1    9.75    1.32
  -2  -8   1   12.26    1.31
   1   8  -1   18.77    1.26
  -1  -8   1   19.28    1.72
  -1  -8   1   16.60    1.37
   0   8  -1    2.13    0.66
   0  -8   1    3.07    0.67
   0  -8   1    3.86    0.91
  -1   8  -1   13.18    1.26
  -1   8  -1   11.09    0.91
   1  -8   1   14.50    1.04
   1  -8   1    9.85    1.32
  -2   8  -1    3.34    0.65
  -2   8  -1    3.86    0.82
   2  -8   1    3.17    0.80
   2  -8   1    3.52    0.91
  -3   8  -1    1.47    0.63
   3  -8   1    2.74    0.87
   3  -8   1    0.92    0.66
  -4   8  -1    6.98    1.04
   4  -8   1    7.12    1.23
   4  -8   1    8.54    1.20
  -5   8  -1   18.95    1.65
   5  -8   1   23.32    2.02
   5  -8   1   21.43    1.91
  -6   8  -1   32.49    1.99
   6  -8   1   36.32    2.34
   6  -8   1   30.07    2.04
  -7   8  -1   21.13    2.03
   7  -8   1   21.88    2.14
   7  -8   1   22.12    2.15
  -8   8  -1    3.77    1.20
   8  -8   1    3.56    1.21
   8  -8   1    3.33    1.21
   8   7  -1    0.44    1.09
  -8  -7   1    0.19    0.79
   7   7  -1   24.08    2.22
  -7  -7   1   26.51    2.33
   6   7  -1    4.61    1.15
  -6  -7   1    4.18    1.09
   5   7  -1   -0.83    0.65
   5   7  -1    1.75    0.63
  -5  -7   1    0.02    0.62
   4   7  -1    2.77    0.85
   4   7  -1    2.84    0.66
  -4  -7   1    2.35    0.73
   3   7  -1   23.76    1.87
   3   7  -1   22.46    1.24
  -3  -7   1   24.95    1.60
   2   7  -1   14.38    1.04
  -2  -7   1   14.52    1.41
  -2  -7   1   11.90    1.17
   1   7  -1    9.67    0.92
  -1  -7   1    6.76    0.86
   0   7  -1   53.85    1.85
   0   7  -1   51.47    1.39
   0  -7   1   52.13    2.29
   0  -7   1   54.67    1.81
  -1   7  -1    0.25    0.43
  -1   7  -1    0.43    0.37
   1  -7   1    0.54    0.63
   1  -7   1    0.66    0.39
  -2   7  -1  108.70    2.62
   2  -7   1  109.36    2.29
   2  -7   1  106.44    3.10
   2  -7   1  104.49    3.32
  -3   7  -1  441.94    7.41
   3  -7   1  447.36    8.05
   3  -7   1  461.19    8.53
  -4   7  -1    1.68    0.64
   4  -7   1    1.03    0.66
   4  -7   1    0.41    0.67
  -5   7  -1    2.54    0.75
   5  -7   1    1.92    0.84
   5  -7   1    1.29    0.71
  -6   7  -1   43.47    2.22
   6  -7   1   43.12    2.41
   6  -7   1   47.55    2.40
  -7   7  -1    7.94    1.30
   7  -7   1    7.84    1.32
   7  -7   1   11.09    1.57
  -8   7  -1    5.56    1.26
   8  -7   1    2.68    1.11
   8  -7   1    3.72    1.17
   8   6  -1    7.33    1.40
  -8  -6   1    5.68    1.31
   7   6  -1    3.08    1.07
  -7  -6   1    4.93    1.20
   6   6  -1    1.21    0.80
  -6  -6   1    2.96    0.95
   5   6  -1    6.10    1.09
   5   6  -1    7.09    0.89
  -5  -6   1    4.45    0.97
   4   6  -1    0.91    0.51
   4   6  -1   -0.67    0.54
  -4  -6   1    0.05    0.53
   3   6  -1   36.07    1.44
   3   6  -1   35.02    1.82
  -3  -6   1   37.30    1.80
   2   6  -1   54.84    1.69
  -2  -6   1   49.92    1.88
  -2  -6   1   51.45    2.05
   1   6  -1   88.66    2.27
   1   6  -1   97.07    1.69
  -1  -6   1   99.66    2.85
  -1  -6   1   95.13    2.47
   0   6  -1   45.29    1.20
   0   6  -1   45.43    1.59
   0  -6   1   46.40    1.53
   0  -6   1   46.64    1.95
  -1   6  -1   30.94    1.11
  -1   6  -1   31.12    1.39
   1  -6   1   29.60    1.12
   1  -6   1   32.14    1.66
  -2   6  -1  260.40    4.52
   2  -6   1  252.49    5.03
   2  -6   1  251.09    5.36
   2  -6   1  256.50    4.02
  -3   6  -1  394.01    6.63
   3  -6   1  403.37    7.51
   3  -6   1  399.29    7.17
  -4   6  -1  214.57    4.52
   4  -6   1  209.07    4.80
   4  -6   1  214.72    4.97
  -5   6  -1   -0.55    0.48
   5  -6   1    0.18    0.56
   5  -6   1    0.05    0.60
  -6   6  -1   11.44    1.36
   6  -6   1   14.11    1.54
   6  -6   1   12.65    1.48
  -7   6  -1    2.42    0.85
   7  -6   1    1.48    0.80
   7  -6   1    2.96    0.96
  -8   6  -1    3.93    1.09
   8  -6   1    6.78    1.32
   8  -6   1    6.59    1.28
  -9   6  -1    0.94    0.90
   9  -6   1    0.64    0.90
   8   5  -1    1.67    0.94
  -8  -5   1    2.71    1.08
   7   5  -1    8.29    1.36
  -7  -5   1    7.88    1.28
   6   5  -1    4.59    0.79
   6   5  -1    3.75    0.96
  -6  -5   1    2.37    0.86
   5   5  -1    2.78    0.67
   5   5  -1    4.80    0.94
  -5  -5   1    4.23    0.90
   4   5  -1   20.12    1.13
   4   5  -1   18.75    1.33
  -4  -5   1   18.20    1.32
   3   5  -1   21.05    1.04
   3   5  -1   22.49    1.38
  -3  -5   1   18.52    0.66
  -3  -5   1   20.03    1.25
   2   5  -1    7.25    0.69
  -2  -5   1    8.07    0.86
  -2  -5   1    8.52    0.92
  -2  -5   1    6.89    0.36
   1   5  -1  136.78    2.77
  -1  -5   1  136.67    2.11
  -1  -5   1  144.80    2.99
  -1  -5   1  137.64    3.27
   0   5  -1  165.38    2.66
   0   5  -1  162.69    3.18
   0  -5   1  162.11    3.08
   0  -5   1  171.51    3.77
  -1   5  -1  152.03    2.74
   1  -5   1  153.13    2.73
   1  -5   1  150.60    3.59
   1  -5   1  152.98    3.24
  -2   5  -1  218.98    3.91
   2  -5   1  225.69    4.68
   2  -5   1  221.07    4.36
   2  -5   1  215.35    3.33
  -3   5  -1  114.09    2.72
   3  -5   1  108.52    3.08
   3  -5   1  108.58    2.92
  -4   5  -1   28.66    1.44
   4  -5   1   28.35    1.54
   4  -5   1   27.94    1.64
  -5   5  -1    5.92    0.93
   5  -5   1    7.49    1.05
   5  -5   1    7.58    1.06
  -6   5  -1   15.15    1.50
   6  -5   1   18.98    1.68
   6  -5   1   13.55    1.44
  -7   5  -1   10.77    1.41
   7  -5   1    9.38    1.31
   7  -5   1    6.83    1.20
  -8   5  -1   -1.21    0.55
   8  -5   1    0.90    0.90
   8  -5   1   -0.08    0.70
  -9   5  -1    5.92    1.32
   9  -5   1    5.29    1.32
   9  -5   1    7.11    1.35
   9   4  -1    0.61    1.02
  -9  -4   1   -0.35    0.90
   8   4  -1    0.81    0.90
  -8  -4   1    1.17    0.82
   7   4  -1    0.75    0.72
  -7  -4   1   -0.64    0.52
   6   4  -1    0.13    0.59
   6   4  -1   -0.43    0.40
  -6  -4   1   -0.35    0.53
   5   4  -1    0.79    0.50
   5   4  -1    0.83    0.62
  -5  -4   1    2.12    0.66
  -5  -4   1    0.77    0.40
   4   4  -1   73.28    2.00
   4   4  -1   72.70    2.38
  -4  -4   1   72.82    1.66
  -4  -4   1   73.96    2.41
   3   4  -1   10.84    0.97
   3   4  -1   10.89    0.76
  -3  -4   1   13.30    0.98
  -3  -4   1   10.69    0.52
   2   4  -1  203.93    3.51
  -2  -4   1  202.61    3.89
  -2  -4   1  205.22    2.83
  -2  -4   1  206.95    4.01
   1   4  -1  103.47    2.12
  -1  -4   1  102.56    1.54
  -1  -4   1  102.58    2.28
  -1  -4   1  100.17    2.46
   0   4  -1    0.59    0.28
   0   4  -1    0.49    0.19
   0  -4   1    1.78    0.46
  -1   4  -1  165.36    2.80
   1  -4   1  165.87    2.69
   1  -4   1  166.42    3.55
  -2   4  -1   60.13    1.61
   2  -4   1   61.77    1.98
   2  -4   1   62.00    1.11
   2  -4   1   60.94    1.84
  -3   4  -1   17.11    0.99
   3  -4   1   16.94    1.10
   3  -4   1   18.80    1.17
  -4   4  -1   65.29    2.06
   4  -4   1   57.50    2.10
   4  -4   1   57.92    2.09
  -5   4  -1    1.14    0.57
   5  -4   1    0.84    0.55
   5  -4   1   -0.41    0.51
  -6   4  -1   14.95    1.45
   6  -4   1   14.37    1.42
   6  -4   1   14.85    1.43
  -7   4  -1    5.83    1.09
   7  -4   1    7.98    1.20
   7  -4   1    4.60    0.99
  -8   4  -1    8.08    1.28
   8  -4   1    7.46    1.26
   8  -4   1    7.10    1.27
  -9   4  -1   13.04    1.68
   9  -4   1   15.77    1.85
   9  -4   1   15.87    1.81
   9   3  -1    3.86    1.23
   8   3  -1    0.95    0.87
  -8  -3   1    0.85    0.71
   7   3  -1   12.60    1.45
   7   3  -1    9.68    1.09
  -7  -3   1    9.91    1.34
  -7  -3   1    9.99    1.05
   6   3  -1    2.23    0.62
   6   3  -1    2.03    0.76
  -6  -3   1    2.43    0.57
  -6  -3   1    3.23    0.82
   5   3  -1   39.58    1.51
   5   3  -1   38.31    1.81
  -5  -3   1   41.39    1.38
  -5  -3   1   40.14    1.84
   4   3  -1  200.37    4.16
   4   3  -1  208.90    3.79
  -4  -3   1  203.36    4.20
  -4  -3   1  204.91    3.41
   3   3  -1  288.53    5.03
   3   3  -1  288.82    4.62
  -3  -3   1  282.52    5.00
  -3  -3   1  285.69    4.13
   2   3  -1  126.55    2.35
   2   3  -1  122.81    2.62
  -2  -3   1  122.88    2.62
  -2  -3   1  121.97    2.60
  -2  -3   1  126.23    1.87
   1   3  -1   41.17    1.11
  -1  -3   1   43.52    1.35
  -1  -3   1   43.34    1.24
   0   3  -1   96.01    1.50
   0   3  -1   94.78    1.87
   0  -3   1   96.02    2.23
   0  -3   1   94.83    1.80
  -1   3  -1   13.92    0.60
   1  -3   1   13.28    0.48
   1  -3   1   14.08    0.75
   1  -3   1   13.16    0.86
  -2   3  -1   28.11    1.00
   2  -3   1   27.62    1.20
   2  -3   1   24.58    1.05
  -3   3  -1   45.45    1.47
   3  -3   1   44.69    1.62
  -4   3  -1   21.35    1.15
   4  -3   1   27.90    1.41
   4  -3   1   22.19    1.21
  -5   3  -1    8.03    0.96
   5  -3   1    6.15    0.88
   5  -3   1    4.95    0.82
  -6   3  -1   34.28    1.77
   6  -3   1   35.29    1.89
   6  -3   1   35.75    1.77
  -7   3  -1   34.98    1.98
   7  -3   1   33.58    1.88
   7  -3   1   32.40    1.91
  -8   3  -1    7.00    1.17
   8  -3   1    5.84    1.13
   8  -3   1    5.92    1.23
  -9   3  -1   12.98    1.61
   9  -3   1   17.04    1.87
   9   2  -1   -0.13    0.86
   8   2  -1   13.15    1.58
  -8  -2   1   11.01    1.45
  -8  -2   1   12.18    1.25
   7   2  -1   18.83    1.68
   7   2  -1   19.48    1.34
  -7  -2   1   15.99    1.30
  -7  -2   1   21.10    1.74
   6   2  -1    0.29    0.63
   6   2  -1    0.87    0.54
  -6  -2   1    0.47    0.46
  -6  -2   1    1.35    0.66
   5   2  -1  195.50    4.26
   5   2  -1  202.73    3.92
  -5  -2   1  200.14    4.26
  -5  -2   1  201.51    3.74
   4   2  -1   65.18    1.78
   4   2  -1   63.28    1.99
  -4  -2   1   63.90    1.63
  -4  -2   1   65.06    1.99
   3   2  -1   47.17    1.49
   3   2  -1   46.90    1.34
  -3  -2   1   42.86    1.45
  -3  -2   1   44.40    1.13
   2   2  -1   67.13    1.51
   2   2  -1   71.67    1.66
  -2  -2   1   71.00    1.26
  -2  -2   1   69.17    1.68
   1   2  -1  608.45    7.97
  -1  -2   1  588.36    8.22
  -1  -2   1  593.27    8.47
   0   2  -1  102.18    1.77
   0   2  -1  104.00    1.45
   0  -2   1  103.90    1.73
   0  -2   1   97.83    2.06
  -1   2  -1   47.90    1.05
   1  -2   1   45.80    1.20
   1  -2   1   46.74    0.79
  -2   2  -1  190.91    3.13
   2  -2   1  186.18    3.41
  -3   2  -1  274.67    3.74
  -3   2  -1  278.84    4.52
   3  -2   1  270.79    4.76
   3  -2   1  267.01    4.58
  -4   2  -1   24.67    1.16
  -4   2  -1   24.98    0.77
   4  -2   1   22.02    1.21
   4  -2   1   23.76    1.15
  -5   2  -1   92.43    1.94
  -5   2  -1   97.04    2.65
   5  -2   1   90.68    2.55
   5  -2   1   95.58    2.80
  -6   2  -1   96.18    2.87
   6  -2   1   91.89    2.76
   6  -2   1   89.74    2.96
  -7   2  -1   27.68    1.72
   7  -2   1   28.32    1.88
   7  -2   1   26.41    1.66
  -8   2  -1   23.79    1.70
   8  -2   1   26.80    1.95
   8  -2   1   24.35    1.72
  -9   2  -1   18.35    1.84
   9  -2   1   15.46    1.83
   9   1  -1    3.21    1.09
  -9  -1   1    2.36    0.83
   8   1  -1   17.90    1.75
   8   1  -1   21.08    1.72
  -8  -1   1   20.18    1.41
   7   1  -1    5.49    0.92
   7   1  -1    3.41    0.92
  -7  -1   1    7.16    1.07
  -7  -1   1    3.93    0.79
   6   1  -1   92.58    2.59
   6   1  -1   90.06    2.78
  -6  -1   1   93.44    2.77
  -6  -1   1   88.60    2.51
   5   1  -1  180.64    3.66
   5   1  -1  178.46    3.92
  -5  -1   1  175.37    3.52
  -5  -1   1  183.20    3.81
   4   1  -1   47.57    1.50
   4   1  -1   45.69    1.60
  -4  -1   1   46.26    1.57
  -4  -1   1   45.51    1.39
   3   1  -1   19.44    0.92
   3   1  -1   19.74    0.85
  -3  -1   1   18.96    0.90
  -3  -1   1   19.55    0.78
   2   1  -1  500.61    7.17
   2   1  -1  495.39    6.88
  -2  -1   1  506.91    6.63
  -2  -1   1  488.62    7.07
   1   1  -1   19.14    0.57
  -1  -1   1   17.14    0.56
  -1  -1   1   18.92    0.61
  -1  -1   1   18.46    0.44
   0   1  -1  259.24    3.45
   0   1  -1  254.55    3.22
   0  -1   1  252.60    3.46
   0  -1   1  239.42    3.74
  -1   1  -1  106.95    1.73
   1  -1   1  107.94    1.80
   1  -1   1  106.87    1.51
  -2   1  -1  179.61    2.61
   2  -1   1  180.99    2.96
   2  -1   1  180.91    3.19
  -3   1  -1    0.91    0.23
  -3   1  -1    1.18    0.33
   3  -1   1    1.27    0.38
   3  -1   1    1.17    0.31
  -4   1  -1   34.31    1.08
  -4   1  -1   34.77    1.32
   4  -1   1   34.33    1.52
   4  -1   1   36.42    1.34
  -5   1  -1  232.85    4.47
  -5   1  -1  229.15    4.01
   5  -1   1  225.16    4.35
   5  -1   1  233.36    4.80
  -6   1  -1   63.58    2.24
  -6   1  -1   61.02    1.86
   6  -1   1   61.49    2.13
   6  -1   1   61.78    2.44
  -7   1  -1    0.49    0.55
   7  -1   1   -0.90    0.64
   7  -1   1    0.54    0.59
  -8   1  -1   24.40    1.66
   8  -1   1   29.21    2.03
  -9   1  -1    3.02    0.89
   9  -1   1    3.70    1.20
  -9   0   1    2.74    0.90
   8   0  -1   40.53    2.08
   8   0  -1   42.11    2.27
  -8   0   1   38.75    2.00
   7   0  -1    0.10    0.64
   7   0  -1   -0.16    0.53
  -7   0   1   -0.13    0.46
  -7   0   1   -0.26    0.49
   6   0  -1    6.57    0.96
   6   0  -1    5.15    0.83
  -6   0   1    5.97    0.88
  -6   0   1    5.42    0.85
   5   0  -1   40.07    1.57
   5   0  -1   39.90    1.64
  -5   0   1   37.74    1.52
  -5   0   1   37.29    1.51
   4   0  -1    1.91    0.46
   4   0  -1    1.44    0.43
  -4   0   1    2.31    0.47
  -4   0   1    1.12    0.38
   3   0  -1    3.68    0.47
   3   0  -1    3.36    0.45
  -3   0   1    4.53    0.49
  -3   0   1    4.72    0.50
   2   0  -1   33.30    0.99
   2   0  -1   34.95    0.94
  -2   0   1   34.96    0.97
  -2   0   1   36.24    0.98
   1   0  -1   19.62    0.59
   1   0  -1   20.46    0.47
   1   0  -1   19.82    0.58
  -1   0   1   20.95    0.57
  -1   0   1   20.30    0.59
   0   0  -1   15.45    0.37
   0   0  -1   16.23    0.35
   0   0   1   15.24    0.34
   0   0   1   16.39    0.42
  -1   0  -1  377.26    5.11
  -1   0  -1  375.70    4.98
  -2   0  -1  205.86    3.15
  -2   0  -1  201.44    3.11
   2   0   1  199.57    3.01
   2   0   1  198.81    3.43
  -3   0  -1  175.18    3.07
  -3   0  -1  174.93    3.00
   3   0   1  174.32    3.38
   3   0   1  169.29    2.90
  -4   0  -1  104.47    2.32
  -4   0  -1  106.13    2.41
   4   0   1  108.18    2.73
   4   0   1  108.12    2.29
  -5   0  -1   24.01    1.19
  -5   0  -1   22.31    1.18
   5   0   1   21.63    1.11
   5   0   1   24.05    1.46
  -6   0  -1    0.01    0.45
  -6   0  -1   -0.21    0.43
   6   0   1   -0.25    0.45
   6   0   1   -0.03    0.64
  -7   0  -1    8.20    1.07
   7   0   1    6.17    0.94
   7   0   1    6.96    1.15
  -8   0  -1   22.40    1.57
   8   0   1   24.68    1.84
  -9   0  -1    1.22    0.78
   9   0   1    0.48    1.01
   9  -1  -1    3.98    1.05
  -9   1   1    4.82    1.06
   8  -1  -1    8.21    1.24
   8  -1  -1    7.27    1.24
  -8   1   1    7.73    1.12
   7  -1  -1   -0.27    0.62
   7  -1  -1    0.95    0.63
  -7   1   1    0.83    0.63
   6  -1  -1   -0.30    0.61
   6  -1  -1    0.15    0.60
  -6   1   1    1.31    0.61
  -6   1   1    1.47    0.53
   5  -1  -1    8.64    0.94
   5  -1  -1    7.69    0.86
  -5   1   1    7.13    0.74
  -5   1   1    6.31    0.82
   4  -1  -1    0.00    0.33
   4  -1  -1    0.27    0.36
  -4   1   1    0.77    0.38
  -4   1   1    0.41    0.31
   3  -1  -1   27.40    1.00
  -3   1   1   27.70    0.90
  -3   1   1   27.65    1.09
   2  -1  -1   14.55    0.63
   2  -1  -1   12.23    0.64
  -2   1   1   13.15    0.68
  -2   1   1   13.27    0.55
   1  -1  -1   13.08    0.43
   1  -1  -1   13.44    0.52
  -1   1   1   12.94    0.45
   0  -1  -1  395.86    5.19
   0  -1  -1  392.81    5.17
   0  -1  -1  402.59    5.44
  -1  -1  -1  517.20    6.57
  -1  -1  -1  500.45    6.93
   1   1   1  492.14    7.08
  -2  -1  -1  596.62    7.87
  -2  -1  -1  581.29    8.24
   2   1   1  591.85    7.64
   2   1   1  589.85    8.57
  -3  -1  -1  377.56    5.58
  -3  -1  -1  386.47    5.91
   3   1   1  385.66    6.21
   3   1   1  374.91    5.35
  -4  -1  -1   47.19    1.57
  -4  -1  -1   44.98    1.43
   4   1   1   45.97    1.31
   4   1   1   47.73    1.76
  -5  -1  -1   17.75    1.03
  -5  -1  -1   15.66    1.10
   5   1   1   18.64    1.30
   5   1   1   18.46    1.00
  -6  -1  -1  161.65    3.62
  -6  -1  -1  161.40    3.77
   6   1   1  157.99    4.15
   6   1   1  169.48    3.52
  -7  -1  -1    4.23    0.81
  -7  -1  -1    3.15    0.76
   7   1   1    3.09    0.92
  -8  -1  -1    9.56    1.22
   8   1   1    8.33    1.33
  -9  -1  -1   -0.77    0.61
   9   1   1    0.43    0.94
   9  -2  -1   11.48    1.55
  -9   2   1    8.44    1.38
   8  -2  -1    3.09    0.89
   8  -2  -1    3.96    1.00
  -8   2   1    6.09    1.06
   7  -2  -1    6.88    1.08
   7  -2  -1    9.11    1.16
  -7   2   1    8.98    1.17
   6  -2  -1    3.23    0.84
   6  -2  -1    3.21    0.80
  -6   2   1    3.87    0.65
  -6   2   1    4.40    0.82
   5  -2  -1   32.31    1.48
   5  -2  -1   36.88    1.61
  -5   2   1   35.39    1.66
  -5   2   1   36.26    1.25
   4  -2  -1   22.55    1.19
   4  -2  -1   25.59    1.13
  -4   2   1   22.82    1.19
  -4   2   1   20.94    0.87
   3  -2  -1   48.44    1.37
  -3   2   1   47.36    1.51
  -3   2   1   47.42    1.14
   2  -2  -1  431.50    6.17
  -2   2   1  417.85    5.76
  -2   2   1  400.64    6.15
   1  -2  -1  491.08    6.75
   1  -2  -1  460.57    6.88
  -1   2   1  489.95    6.61
   0  -2  -1  366.45    5.03
   0  -2  -1  356.66    4.95
   0  -2  -1  368.96    5.24
   0  -2  -1  358.95    5.28
  -1  -2  -1  572.98    8.20
  -1  -2  -1  601.69    7.66
   1   2   1  583.57    8.35
  -2  -2  -1  331.98    5.26
  -2  -2  -1  332.57    4.75
   2   2   1  344.46    4.55
   2   2   1  332.10    5.38
  -3  -2  -1    7.57    0.75
  -3  -2  -1    6.77    0.56
   3   2   1    8.83    0.81
   3   2   1    6.13    0.45
  -4  -2  -1    0.26    0.36
  -4  -2  -1    0.95    0.37
   4   2   1    0.78    0.30
   4   2   1    0.81    0.46
  -5  -2  -1   15.06    1.02
  -5  -2  -1   15.67    1.13
   5   2   1   17.71    1.44
   5   2   1   15.89    0.90
  -6  -2  -1   12.76    1.29
  -6  -2  -1   13.57    1.16
   6   2   1   11.16    1.32
   6   2   1   14.70    1.08
  -7  -2  -1    1.52    0.75
   7   2   1    1.56    0.79
  -8  -2  -1   10.35    1.22
  -8  -2  -1    8.73    1.28
   8   2   1    9.85    1.44
  -9  -2  -1    0.16    0.70
   9   2   1    0.15    0.91
   9  -3  -1   21.19    2.06
  -9   3   1   20.22    1.97
   8  -3  -1    2.01    0.86
  -8   3   1    2.71    0.95
   7  -3  -1   18.01    1.67
   7  -3  -1   15.92    1.46
  -7   3   1   15.53    1.53
   6  -3  -1   34.75    1.79
   6  -3  -1   36.38    1.85
  -6   3   1   34.18    1.79
   5  -3  -1   76.97    2.34
   5  -3  -1   76.97    2.53
  -5   3   1   77.27    1.80
  -5   3   1   86.53    2.62
   4  -3  -1    3.22    0.65
   4  -3  -1    2.91    0.55
  -4   3   1    3.47    0.65
  -4   3   1    3.75    0.43
   3  -3  -1  114.42    2.51
  -3   3   1  110.54    2.63
  -3   3   1  112.15    2.00
   2  -3  -1  393.48    6.09
   2  -3  -1  395.02    6.08
  -2   3   1  383.92    5.51
  -2   3   1  376.17    5.97
   1  -3  -1   83.08    1.92
   1  -3  -1   81.99    1.85
   1  -3  -1   82.87    1.67
   0  -3  -1   32.21    1.03
   0  -3  -1   31.23    0.97
   0  -3  -1   30.95    1.07
   0  -3  -1   31.35    0.92
  -1  -3  -1  140.08    2.75
  -1  -3  -1  143.92    2.75
  -1  -3  -1  140.71    2.29
   1   3   1  142.28    2.25
   1   3   1  143.26    2.75
  -2  -3  -1    3.57    0.37
  -2  -3  -1    3.71    0.52
   2   3   1    3.93    0.52
   2   3   1    3.59    0.32
  -3  -3  -1    0.07    0.26
  -3  -3  -1   -0.15    0.31
   3   3   1    0.37    0.24
   3   3   1   -0.07    0.33
  -4  -3  -1    0.38    0.32
  -4  -3  -1    0.92    0.48
   4   3   1    0.66    0.31
   4   3   1    0.84    0.50
  -5  -3  -1    1.82    0.64
  -5  -3  -1    1.45    0.49
   5   3   1    1.91    0.74
   5   3   1    2.62    0.51
  -6  -3  -1    0.07    0.43
  -6  -3  -1   -0.55    0.52
   6   3   1    0.02    0.59
  -7  -3  -1    0.82    0.69
  -7  -3  -1    1.11    0.60
   7   3   1    2.03    0.90
  -8  -3  -1   17.10    1.52
  -8  -3  -1   15.23    1.72
   8   3   1   14.35    1.71
   9   3   1    4.95    1.33
   9  -4  -1    5.42    1.30
  -9   4   1    5.38    1.22
   8  -4  -1   -0.13    0.66
  -8   4   1    0.62    0.73
   7  -4  -1   11.99    1.29
   7  -4  -1    9.75    1.32
  -7   4   1    9.22    1.25
   6  -4  -1   38.04    1.95
   6  -4  -1   36.35    1.83
  -6   4   1   37.68    1.97
   5  -4  -1   43.50    2.00
   5  -4  -1   46.88    1.93
  -5   4   1   44.79    1.98
   4  -4  -1   77.26    2.27
   4  -4  -1   82.13    2.49
  -4   4   1   77.69    1.61
  -4   4   1   75.85    2.40
   3  -4  -1  222.73    4.36
   3  -4  -1  218.71    4.24
  -3   4   1  219.00    3.45
  -3   4   1  219.54    4.26
   2  -4  -1  260.69    4.63
   2  -4  -1  253.46    4.65
  -2   4   1  252.59    4.48
  -2   4   1  256.72    4.01
   1  -4  -1  172.33    3.32
   1  -4  -1  173.15    3.23
   1  -4  -1  176.16    3.07
   1  -4  -1  175.44    3.48
   0  -4  -1  283.40    4.37
   0  -4  -1  286.34    4.54
   0  -4  -1  286.07    4.66
   0  -4  -1  289.00    4.94
  -1  -4  -1   22.50    1.07
  -1  -4  -1   20.55    0.74
  -1  -4  -1   18.02    0.94
   1   4   1   20.03    0.74
  -2  -4  -1  235.07    3.63
  -2  -4  -1  234.91    4.37
   2   4   1  237.35    4.44
   2   4   1  232.29    3.59
  -3  -4  -1    9.37    0.96
  -3  -4  -1   10.51    0.63
   3   4   1   11.47    0.65
   3   4   1   10.57    1.02
  -4  -4  -1   59.19    1.64
  -4  -4  -1   59.85    2.17
   4   4   1   59.24    2.21
   4   4   1   60.24    1.55
  -5  -4  -1   48.68    1.64
  -5  -4  -1   45.35    2.11
   5   4   1   43.04    2.11
   5   4   1   49.95    1.50
  -6  -4  -1   17.70    1.64
  -6  -4  -1   16.29    1.14
   6   4   1   20.69    1.80
  -7  -4  -1   39.99    1.78
  -7  -4  -1   45.40    2.39
   7   4   1   39.57    2.28
  -8  -4  -1   21.02    2.06
   8   4   1   22.27    2.13
  -9  -4  -1    4.31    1.30
   9   4   1    5.04    1.37
   9  -5  -1    3.89    1.18
  -9   5   1    3.96    1.11
   8  -5  -1    0.84    0.84
  -8   5   1    0.36    0.80
   7  -5  -1   10.77    1.32
   7  -5  -1   13.08    1.54
  -7   5   1   12.30    1.52
   6  -5  -1  150.39    4.17
   6  -5  -1  152.76    3.95
  -6   5   1  142.76    4.08
   5  -5  -1    7.83    1.04
   5  -5  -1    8.03    1.10
  -5   5   1    8.59    1.12
   4  -5  -1   81.80    2.53
   4  -5  -1   79.03    2.60
  -4   5   1   79.30    2.54
   3  -5  -1   89.10    2.60
   3  -5  -1   83.41    2.49
  -3   5   1   85.01    1.82
  -3   5   1   87.36    2.47
   2  -5  -1   47.83    1.76
   2  -5  -1   52.19    1.86
   2  -5  -1   49.07    1.37
  -2   5   1   48.72    1.69
   1  -5  -1   -0.17    0.39
   1  -5  -1    0.69    0.37
   1  -5  -1    0.23    0.34
   1  -5  -1    0.38    0.30
   0  -5  -1  215.42    4.25
   0  -5  -1  213.17    3.85
   0  -5  -1  213.50    3.90
   0  -5  -1  211.22    3.63
  -1  -5  -1   26.14    1.24
  -1  -5  -1   27.16    1.34
  -1  -5  -1   28.19    0.96
   1   5   1   30.22    1.03
  -2  -5  -1   42.12    1.17
  -2  -5  -1   38.17    1.58
   2   5   1   38.29    1.63
   2   5   1   43.21    1.21
  -3  -5  -1   58.80    2.08
  -3  -5  -1   56.31    1.46
   3   5   1   52.72    2.06
   3   5   1   56.69    1.46
  -4  -5  -1   48.48    2.06
  -4  -5  -1   48.52    1.48
   4   5   1   45.58    2.09
   4   5   1   48.35    1.45
  -5  -5  -1   41.05    1.47
  -5  -5  -1   41.77    2.09
   5   5   1   38.95    2.09
  -6  -5  -1   60.68    2.62
   6   5   1   59.81    2.63
  -7  -5  -1   36.07    2.24
   7   5   1   31.22    2.17
  -8  -5  -1    0.17    0.83
   8   5   1   -0.06    0.92
   9  -6  -1    5.40    1.37
  -9   6   1    6.08    1.39
   8  -6  -1    1.13    0.89
  -8   6   1    2.14    0.95
   7  -6  -1    3.32    1.04
  -7   6   1    0.87    0.75
   6  -6  -1   66.36    2.76
   6  -6  -1   65.06    2.61
  -6   6   1   59.97    2.67
   5  -6  -1   79.11    2.74
   5  -6  -1   82.33    2.93
  -5   6   1   77.25    2.83
   4  -6  -1    1.04    0.65
   4  -6  -1    0.29    0.59
  -4   6   1    1.23    0.58
   3  -6  -1    4.15    0.81
   3  -6  -1    1.52    0.61
  -3   6   1    2.63    0.67
  -3   6   1    2.86    0.46
   2  -6  -1    1.05    0.38
   2  -6  -1    1.43    0.53
   2  -6  -1    1.23    0.56
  -2   6   1    0.72    0.44
   1  -6  -1   64.35    1.86
   1  -6  -1   67.52    1.95
   1  -6  -1   64.22    2.24
   1  -6  -1   64.80    2.09
   0  -6  -1   30.76    1.35
   0  -6  -1   31.13    1.56
   0  -6  -1   30.88    1.35
   0  -6  -1   33.02    1.25
   0   6   1   31.97    1.32
  -1  -6  -1   66.32    2.29
  -1  -6  -1   69.54    1.71
  -1  -6  -1   70.37    2.16
   1   6   1   67.77    1.80
  -2  -6  -1   32.25    1.56
  -2  -6  -1   32.01    1.11
   2   6   1   33.16    1.67
   2   6   1   33.77    1.18
  -3  -6  -1   41.75    1.27
  -3  -6  -1   42.27    1.90
   3   6   1   40.74    1.34
   3   6   1   39.94    1.92
  -4  -6  -1  102.12    3.23
   4   6   1  102.87    3.30
   4   6   1  105.01    2.37
  -5  -6  -1    9.87    1.28
   5   6   1   10.31    1.34
  -6  -6  -1    0.47    0.71
   6   6   1    0.34    0.73
  -7  -6  -1   13.59    1.71
   7   6   1   12.66    1.65
  -8  -6  -1    1.29    1.00
   8   6   1    0.22    0.93
   8  -7  -1   -0.71    0.78
  -8   7   1    0.15    0.77
   7  -7  -1    4.99    1.21
  -7   7   1    5.14    1.14
   6  -7  -1    2.52    0.89
   6  -7  -1    3.53    0.98
  -6   7   1    3.82    0.99
   5  -7  -1   80.65    3.04
   5  -7  -1   82.61    2.97
  -5   7   1   80.76    2.95
   4  -7  -1   11.73    1.36
   4  -7  -1   12.61    1.34
  -4   7   1   12.15    1.28
   3  -7  -1   16.34    1.46
   3  -7  -1   15.77    1.43
  -3   7   1   15.95    1.32
   2  -7  -1   -0.45    0.33
   2  -7  -1    0.43    0.57
   2  -7  -1   -0.53    0.43
  -2   7   1    0.14    0.44
   1  -7  -1    3.29    0.78
   1  -7  -1    3.86    0.73
   1  -7  -1    3.90    0.66
  -1   7   1    4.12    0.67
   0  -7  -1  139.74    3.70
   0  -7  -1  135.94    3.24
   0  -7  -1  146.48    3.04
   0   7   1  143.14    3.22
  -1  -7  -1  252.26    5.02
  -1  -7  -1  247.47    4.26
  -1  -7  -1  254.65    5.43
   1   7   1  250.39    4.52
  -2  -7  -1   23.33    1.04
  -2  -7  -1   21.95    1.42
   2   7   1   26.08    1.17
   2   7   1   27.92    1.68
  -3  -7  -1   58.03    2.34
   3   7   1   59.25    1.76
   3   7   1   56.88    2.44
  -4  -7  -1   35.56    2.00
   4   7   1   33.46    2.05
  -5  -7  -1   -0.26    0.54
   5   7   1   -0.13    0.66
  -6  -7  -1    3.55    1.09
   6   7   1    1.87    0.97
  -7  -7  -1   -0.21    0.84
   7   7   1    1.52    1.01
  -8  -7  -1   -0.80    0.88
   8   7   1    0.48    1.04
   8  -8  -1    0.48    0.87
  -8   8   1    1.80    1.02
   7  -8  -1    5.54    1.25
  -7   8   1    4.47    1.15
   6  -8  -1    0.18    0.68
   6  -8  -1    0.30    0.75
  -6   8   1   -0.82    0.64
   5  -8  -1    6.83    1.18
   5  -8  -1    9.82    1.34
  -5   8   1    9.43    1.31
   4  -8  -1   29.24    1.89
   4  -8  -1   26.71    1.79
  -4   8   1   28.34    1.72
   3  -8  -1   42.42    2.10
   3  -8  -1   43.30    2.16
  -3   8   1   41.20    1.89
   2  -8  -1    0.15    0.57
   2  -8  -1    0.73    0.64
   2  -8  -1    0.17    0.44
  -2   8   1    0.19    0.47
   1  -8  -1   24.57    1.71
   1  -8  -1   24.59    1.40
   1  -8  -1   25.36    1.57
  -1   8   1   23.93    1.30
   0  -8  -1  278.97    6.10
   0  -8  -1  286.47    5.49
   0  -8  -1  293.51    5.06
   0   8   1  280.56    5.33
  -1  -8  -1  119.82    3.29
  -1  -8  -1  123.00    3.69
   1   8   1  114.97    2.90
  -2  -8  -1   82.33    2.83
   2   8   1   82.64    3.02
   2   8   1   82.70    2.29
  -3  -8  -1    2.41    0.82
   3   8   1    2.49    0.87
   3   8   1    3.05    0.61
  -4  -8  -1    3.64    0.91
   4   8   1    5.00    1.07
  -5  -8  -1   18.39    1.83
   5   8   1   17.77    1.87
  -6  -8  -1   11.18    1.61
   6   8   1   11.78    1.66
  -7  -8  -1    0.98    0.90
   7   8   1    1.46    1.08
   7  -9  -1    0.34    0.81
  -7   9   1    0.14    0.82
   6  -9  -1    0.17    0.73
  -6   9   1    0.25    0.76
   5  -9  -1    1.38    0.81
   5  -9  -1    0.74    0.80
  -5   9   1    0.88    0.73
   4  -9  -1   21.28    1.85
   4  -9  -1   20.24    1.84
  -4   9   1   23.40    1.63
   3  -9  -1   81.58    3.04
   3  -9  -1   78.75    3.05
  -3   9   1   83.77    2.71
   2  -9  -1   28.97    1.83
   2  -9  -1   29.59    1.84
  -2   9   1   27.66    1.51
   1  -9  -1   40.04    1.77
   1  -9  -1   39.23    2.15
  -1   9   1   38.85    1.67
  -1   9   1   37.00    1.84
   0  -9  -1   97.44    3.41
   0  -9  -1  106.35    3.05
   0   9   1  107.49    3.04
  -1  -9  -1    1.05    0.77
  -1  -9  -1    0.81    0.57
   1   9   1    0.86    0.52
  -2  -9  -1    0.18    0.59
   2   9   1    0.02    0.75
   2   9   1    0.59    0.48
  -3  -9  -1   12.32    1.47
   3   9   1   17.24    1.82
  -4  -9  -1    9.43    1.42
   4   9   1    9.86    1.46
  -5  -9  -1   10.60    1.49
   5   9   1   10.33    1.65
  -6  -9  -1    0.42    0.86
   6   9   1   -0.54    0.90
   6 -10  -1   11.85    1.69
  -6  10   1    8.71    1.47
   5 -10  -1   24.46    2.23
   5 -10  -1   20.57    1.99
  -5  10   1   20.05    1.87
   4 -10  -1   60.41    2.84
   4 -10  -1   56.45    2.74
  -4  10   1   53.63    2.38
   3 -10  -1   60.29    2.75
   3 -10  -1   59.79    2.71
  -3  10   1   57.68    2.34
   2 -10  -1   16.54    1.69
   2 -10  -1   19.06    1.77
  -2  10   1   19.83    1.37
  -2  10   1   16.94    1.62
   1 -10  -1   26.95    1.57
   1 -10  -1   27.60    1.90
  -1  10   1   27.10    1.67
   0 -10  -1   -0.35    0.59
   0 -10  -1    0.30    0.58
   0  10   1    0.30    0.55
  -1 -10  -1   16.27    1.73
  -1 -10  -1   18.93    1.69
   1  10   1   17.19    1.43
  -2 -10  -1    4.67    1.04
   2  10   1    4.25    1.19
  -3 -10  -1    4.78    1.10
   3  10   1    5.86    1.35
  -4 -10  -1    0.91    0.77
   4  10   1    0.82    0.94
  -5 -10  -1    7.98    1.40
   5  10   1    7.00    1.55
  -6 -10  -1    1.72    1.03
   6  10   1    0.88    1.07
  -6  11   1    7.00    1.38
   5 -11  -1    7.83    1.46
  -5  11   1    9.15    1.42
   4 -11  -1   69.61    3.10
   4 -11  -1   66.23    3.08
  -4  11   1   57.01    2.57
   3 -11  -1   23.89    2.11
   3 -11  -1   21.93    2.06
   2 -11  -1    1.85    0.94
  -2  11   1    1.39    0.78
   1 -11  -1    4.14    1.12
  -1  11   1    6.72    1.12
   0 -11  -1    0.62    0.66
   0 -11  -1    0.73    0.77
   0  11   1    1.31    0.68
  -1 -11  -1   39.66    2.20
  -1 -11  -1   34.48    2.40
   1  11   1   40.63    2.01
  -2 -11  -1    5.69    1.18
   2  11   1    7.68    1.49
  -3 -11  -1   16.86    1.90
   3  11   1   19.26    2.18
  -4 -11  -1    5.10    1.18
   4  11   1    1.59    1.02
  -5 -11  -1   17.69    2.07
   5  11   1   14.61    2.07
   4 -12  -1    9.40    1.53
   4 -12  -1   11.26    1.69
   3 -12  -1    0.67    0.93
  -3  12   1   -0.61    0.61
   2 -12  -1    1.04    0.91
  -2  12   1    3.26    0.99
   1 -12  -1    2.99    1.11
  -1  12   1    4.61    1.08
   0 -12  -1    0.20    0.80
   0  12   1    0.37    0.65
  -1 -12  -1   19.10    1.91
  -1 -12  -1   12.71    1.82
  -2 -12  -1    3.83    1.15
   2  12   1    4.18    1.31
  -3 -12  -1   31.66    2.35
   3  12   1   32.49    2.95
   2 -13  -1    2.65    1.12
  -2  13   1    4.42    1.16
   1 -13  -1    6.52    1.46
  -1  13   1    6.56    1.24
   0 -13  -1    1.94    1.10
  -1 -13  -1    1.61    1.16
   1  13   1    0.64    0.98
   1  13  -2    0.52    0.77
  -1 -13   2    0.51    0.92
   0  13  -2    6.70    1.35
   0 -13   2    6.94    1.54
  -1  13  -2   10.43    1.51
   1 -13   2    8.26    1.61
  -2  13  -2    2.65    1.01
   2 -13   2    5.57    1.38
   3  12  -2   13.39    1.95
  -3 -12   2   16.80    1.92
   2  12  -2    1.24    0.81
  -2 -12   2    0.85    0.88
  -2 -12   2    1.75    0.93
   1  12  -2    0.70    0.73
  -1 -12   2   -0.92    0.79
  -1 -12   2    0.05    0.74
   0  12  -2   12.01    1.55
   0 -12   2   10.59    1.65
  -1  12  -2    0.94    0.81
   1 -12   2    0.17    0.79
  -2  12  -2   28.85    2.04
   2 -12   2   26.63    2.42
  -3  12  -2   20.24    2.04
   3 -12   2   22.84    2.27
  -4  12  -2    1.03    0.84
   4 -12   2    1.25    1.01
   5  11  -2    1.14    1.09
  -5 -11   2   -0.43    0.75
   4  11  -2   -0.11    0.91
  -4 -11   2    0.12    0.75
   3  11  -2    5.49    1.32
   3  11  -2    6.07    1.07
  -3 -11   2    5.17    1.19
   2  11  -2    4.82    0.99
  -2 -11   2    3.81    1.02
  -2 -11   2    3.92    1.17
   1  11  -2   -0.09    0.62
  -1 -11   2    0.50    0.76
  -1 -11   2    0.46    0.64
   0  11  -2   -0.10    0.60
   0 -11   2    0.18    0.83
  -1  11  -2   43.34    2.27
   1 -11   2   41.82    2.54
  -2  11  -2   62.91    2.81
   2 -11   2   68.60    3.19
  -3  11  -2    6.94    1.22
   3 -11   2   11.41    1.65
  -4  11  -2   36.25    2.27
   4 -11   2   38.17    2.59
  -5  11  -2    6.38    1.28
   5 -11   2    5.73    1.39
  -6  11  -2    0.40    0.84
  -6  11  -2   -0.42    0.76
   6  10  -2    2.00    1.24
  -6 -10   2    2.55    1.03
   5  10  -2    0.54    0.95
  -5 -10   2    1.05    0.91
   4  10  -2    1.31    0.89
  -4 -10   2    0.94    0.78
   3  10  -2    7.31    1.09
   3  10  -2    6.83    1.36
  -3 -10   2    6.86    1.23
  -3 -10   2    5.90    1.24
   2  10  -2   -0.10    0.53
  -2 -10   2    0.99    0.75
  -2 -10   2    0.13    0.57
   1  10  -2   13.48    1.38
  -1 -10   2   14.27    1.43
  -1 -10   2   15.76    1.74
   0  10  -2   38.22    1.94
   0 -10   2   41.87    1.91
   0 -10   2   39.46    2.43
  -1  10  -2   90.89    3.12
   1 -10   2   93.79    3.60
  -2  10  -2   64.99    2.74
   2 -10   2   68.91    3.11
  -3  10  -2   10.95    1.44
   3 -10   2    9.84    1.52
  -4  10  -2    2.47    0.80
  -4  10  -2    5.07    1.09
   4 -10   2    2.22    0.99
  -5  10  -2    2.73    0.96
  -5  10  -2    3.11    0.91
   5 -10   2    1.97    0.95
   5 -10   2    3.41    1.12
  -6  10  -2    2.97    0.96
   6 -10   2    3.73    1.18
   6 -10   2    3.92    1.27
   6   9  -2    6.89    1.50
  -6  -9   2    8.29    1.46
   5   9  -2    1.23    0.87
  -5  -9   2    2.19    0.87
   4   9  -2    3.92    1.11
   4   9  -2    2.67    0.80
  -4  -9   2    2.58    0.93
   3   9  -2    3.53    0.80
  -3  -9   2    5.99    1.09
  -3  -9   2    2.90    0.96
   2   9  -2   39.76    1.84
  -2  -9   2   38.05    2.00
  -2  -9   2   33.43    2.17
   1   9  -2   54.34    2.15
  -1  -9   2   54.82    2.63
  -1  -9   2   59.20    2.31
   0   9  -2   30.34    1.67
   0  -9   2   33.87    1.62
   0  -9   2   28.96    1.98
  -1   9  -2  103.39    3.21
   1  -9   2  112.12    2.82
   1  -9   2  100.94    3.60
  -2   9  -2   73.92    2.73
   2  -9   2   65.54    2.91
  -3   9  -2    9.16    1.04
  -3   9  -2    7.13    1.11
   3  -9   2    5.13    1.10
  -4   9  -2   -0.77    0.45
   4  -9   2    1.15    0.82
   4  -9   2   -0.55    0.64
  -5   9  -2    1.63    0.74
   5  -9   2    1.38    0.80
   5  -9   2    0.89    0.90
  -6   9  -2   12.12    1.49
   6  -9   2   13.28    1.82
   6  -9   2   15.25    1.82
  -7   9  -2   14.84    1.75
   7  -9   2   10.43    1.63
   7  -9   2   14.05    1.89
   7   8  -2    9.16    1.59
  -7  -8   2    9.81    1.62
   6   8  -2    2.63    1.07
  -6  -8   2    2.53    0.93
   5   8  -2   22.59    2.03
   5   8  -2   21.23    1.49
  -5  -8   2   19.80    1.84
   4   8  -2   21.42    1.42
   4   8  -2   20.12    1.82
  -4  -8   2   21.60    1.86
   3   8  -2  129.40    3.27
  -3  -8   2  124.89    3.88
  -3  -8   2  125.01    3.67
   2   8  -2   78.71    2.50
  -2  -8   2   90.30    2.83
  -2  -8   2   89.02    3.15
   1   8  -2   22.35    1.32
  -1  -8   2   18.11    1.65
  -1  -8   2   21.01    1.32
   0   8  -2    6.23    0.88
   0  -8   2    5.70    0.82
   0  -8   2    3.94    0.93
  -1   8  -2    1.09    0.61
  -1   8  -2    0.93    0.40
   1  -8   2    1.37    0.75
   1  -8   2    1.61    0.49
  -2   8  -2    2.77    0.60
  -2   8  -2    3.18    0.82
   2  -8   2    2.02    0.82
  -3   8  -2    2.87    0.80
  -3   8  -2    3.15    0.67
   3  -8   2    3.73    0.88
   3  -8   2    2.23    0.83
  -4   8  -2    1.51    0.63
   4  -8   2    1.54    0.76
   4  -8   2    1.46    0.83
  -5   8  -2    2.96    0.83
   5  -8   2    3.49    0.94
   5  -8   2    2.98    0.99
  -6   8  -2    0.71    0.72
   6  -8   2    0.99    0.85
   6  -8   2    1.41    0.86
  -7   8  -2    0.91    0.82
   7  -8   2    1.04    0.88
   7  -8   2    0.85    0.86
  -8   8  -2   42.81    2.61
   8  -8   2   39.48    2.60
   8  -8   2   44.89    2.92
   8   7  -2    1.25    1.08
  -8  -7   2   -0.30    0.89
   7   7  -2    2.30    1.07
  -7  -7   2    1.85    0.90
   6   7  -2   14.59    1.66
  -6  -7   2   16.10    1.74
   5   7  -2   61.24    2.66
   5   7  -2   59.56    2.25
  -5  -7   2   65.13    2.71
   4   7  -2   12.44    1.18
   4   7  -2    6.73    1.10
  -4  -7   2   10.21    1.27
   3   7  -2   49.96    1.89
  -3  -7   2   47.92    2.16
  -3  -7   2   51.98    2.32
   2   7  -2  245.18    4.70
  -2  -7   2  242.61    5.42
  -2  -7   2  242.01    5.02
   1   7  -2   11.30    1.01
  -1  -7   2   12.35    1.33
  -1  -7   2   13.34    1.16
   0   7  -2   42.53    1.10
   0   7  -2   43.52    1.72
   0  -7   2   43.03    2.09
   0  -7   2   44.00    1.62
  -1   7  -2   17.79    1.21
  -1   7  -2   16.76    0.88
   1  -7   2   14.63    0.93
   1  -7   2   20.43    1.72
  -2   7  -2   61.12    2.24
  -2   7  -2   57.71    1.75
   2  -7   2   58.51    1.54
   2  -7   2   56.17    2.45
  -3   7  -2   30.12    1.43
   3  -7   2   31.42    1.94
   3  -7   2   34.13    1.85
  -4   7  -2   22.57    1.45
   4  -7   2   25.32    1.64
   4  -7   2   26.67    1.90
  -5   7  -2   68.37    2.56
   5  -7   2   72.28    2.96
   5  -7   2   64.89    2.73
  -6   7  -2    1.65    0.77
   6  -7   2    1.02    0.80
   6  -7   2    1.19    0.73
  -7   7  -2   23.75    2.09
   7  -7   2   32.31    2.16
   7  -7   2   27.95    2.37
  -8   7  -2   22.20    2.19
   8  -7   2   17.62    2.08
   8  -7   2   16.92    1.92
   8   6  -2    1.10    1.00
  -8  -6   2    0.40    0.91
   7   6  -2    2.88    1.02
  -7  -6   2    4.80    1.11
   6   6  -2   16.28    1.64
   6   6  -2   16.61    1.43
  -6  -6   2   16.04    1.71
   5   6  -2   37.03    1.98
   5   6  -2   41.41    1.79
  -5  -6   2   39.37    2.05
   4   6  -2    5.16    0.94
   4   6  -2    4.98    0.80
  -4  -6   2    5.41    0.96
   3   6  -2   25.84    1.55
   3   6  -2   22.98    1.27
  -3  -6   2   24.31    1.48
  -3  -6   2   28.30    1.61
   2   6  -2    2.37    0.54
  -2  -6   2    3.76    0.74
  -2  -6   2    2.85    0.65
   1   6  -2   95.03    2.40
  -1  -6   2   91.36    2.85
  -1  -6   2   93.34    2.45
   0   6  -2   34.87    0.90
   0   6  -2   32.99    1.38
   0  -6   2   34.43    1.82
   0  -6   2   36.88    1.35
  -1   6  -2   12.31    1.05
  -1   6  -2   11.21    0.68
   1  -6   2   11.71    0.73
   1  -6   2   13.33    1.28
  -2   6  -2    1.30    0.41
  -2   6  -2    0.78    0.53
   2  -6   2    1.73    0.72
   2  -6   2    1.17    0.32
   2  -6   2    1.08    0.55
  -3   6  -2   95.72    2.49
   3  -6   2   91.87    2.80
   3  -6   2   87.38    2.98
  -4   6  -2   72.85    2.35
   4  -6   2   76.62    2.87
   4  -6   2   73.11    2.65
  -5   6  -2   42.91    1.97
   5  -6   2   42.88    2.09
   5  -6   2   43.07    2.19
  -6   6  -2    6.57    1.11
   6  -6   2    8.17    1.24
   6  -6   2    6.69    1.22
  -7   6  -2   27.17    1.88
   7  -6   2   25.78    1.89
   7  -6   2   29.54    2.11
  -8   6  -2    5.86    1.24
   8  -6   2    5.03    1.27
   8  -6   2    5.52    1.21
  -9   6  -2    4.63    1.24
   8   5  -2    6.95    1.36
  -8  -5   2    4.76    1.18
   7   5  -2    3.06    0.98
  -7  -5   2    4.47    1.04
   6   5  -2    3.39    0.92
   6   5  -2    4.70    0.84
  -6  -5   2    4.47    0.98
   5   5  -2    5.29    0.96
   5   5  -2    5.89    0.86
  -5  -5   2    6.52    1.03
   4   5  -2   31.40    1.47
   4   5  -2   33.74    1.73
  -4  -5   2   34.03    1.73
   3   5  -2    0.85    0.50
   3   5  -2    1.34    0.47
  -3  -5   2    1.71    0.57
   2   5  -2    3.31    0.52
  -2  -5   2    1.92    0.53
  -2  -5   2    2.35    0.55
   1   5  -2    0.60    0.35
  -1  -5   2    0.77    0.36
  -1  -5   2    0.56    0.44
   0   5  -2   11.24    0.78
   0   5  -2   12.18    0.48
   0  -5   2   11.60    1.09
   0  -5   2   10.39    0.70
  -1   5  -2   53.87    1.34
  -1   5  -2   53.72    1.70
   1  -5   2   54.61    1.37
   1  -5   2   51.56    2.02
  -2   5  -2  138.85    2.73
   2  -5   2  129.65    3.10
   2  -5   2  133.41    2.22
  -3   5  -2  190.79    3.77
   3  -5   2  193.12    4.14
   3  -5   2  194.22    4.43
  -4   5  -2  241.82    4.70
   4  -5   2  234.43    5.19
   4  -5   2  238.24    4.99
  -5   5  -2   20.45    1.57
   5  -5   2   16.93    1.47
   5  -5   2   16.39    1.53
  -6   5  -2   13.05    1.36
   6  -5   2   11.93    1.39
   6  -5   2   14.90    1.46
  -7   5  -2   12.63    1.53
   7  -5   2   12.92    1.45
   7  -5   2   12.84    1.52
  -8   5  -2   -0.26    0.65
   8  -5   2   -0.09    0.64
   8  -5   2   -0.62    0.80
  -9   5  -2    0.11    0.85
   9  -5   2    0.09    0.83
   9  -5   2   -0.29    0.92
  -9  -4   2    7.12    1.47
   8   4  -2    2.91    1.05
  -8  -4   2    2.84    0.98
   7   4  -2    0.38    0.73
   7   4  -2    0.84    0.61
  -7  -4   2    0.19    0.75
   6   4  -2   26.76    1.71
   6   4  -2   26.88    1.46
  -6  -4   2   23.68    1.62
   5   4  -2   33.05    1.58
   5   4  -2   38.40    1.84
  -5  -4   2   34.90    1.79
   4   4  -2  104.68    2.83
   4   4  -2  109.11    2.64
  -4  -4   2  109.48    2.96
  -4  -4   2  104.94    2.01
   3   4  -2   46.26    1.69
   3   4  -2   47.36    1.57
  -3  -4   2   49.87    1.79
  -3  -4   2   47.20    1.00
   2   4  -2   44.75    1.39
  -2  -4   2   43.99    1.52
  -2  -4   2   42.98    1.54
   1   4  -2   11.42    0.73
  -1  -4   2   12.45    0.93
  -1  -4   2    9.96    0.72
   0   4  -2   28.17    1.04
   0   4  -2   26.63    0.65
   0  -4   2   27.22    1.29
   0  -4   2   26.68    0.95
  -1   4  -2  789.36   11.02
  -1   4  -2  797.51   10.39
   1  -4   2  799.13   10.62
   1  -4   2  780.90   12.03
  -2   4  -2  119.96    2.41
   2  -4   2  120.53    1.86
   2  -4   2  118.22    2.72
   2  -4   2  119.68    3.01
  -3   4  -2  182.99    3.54
   3  -4   2  183.36    3.82
   3  -4   2  187.30    4.10
  -4   4  -2  164.16    3.60
   4  -4   2  171.76    3.81
   4  -4   2  169.75    3.97
  -5   4  -2    5.75    0.87
   5  -4   2    6.69    0.97
   5  -4   2    4.81    0.91
  -6   4  -2    0.39    0.61
   6  -4   2    1.60    0.72
   6  -4   2    0.01    0.51
  -7   4  -2    0.29    0.68
   7  -4   2   -0.42    0.69
   7  -4   2    2.11    0.78
  -8   4  -2    1.40    0.77
   8  -4   2   -0.32    0.77
   8  -4   2    0.58    0.73
  -9   4  -2    1.71    0.91
   9  -4   2    0.45    0.90
  -9  -3   2    0.10    0.88
   8   3  -2   -0.59    0.75
  -8  -3   2    0.24    0.75
   7   3  -2    4.15    0.87
   7   3  -2    5.14    1.02
  -7  -3   2    3.14    0.95
   6   3  -2   18.20    1.27
   6   3  -2   16.60    1.47
  -6  -3   2   18.82    1.61
  -6  -3   2   18.15    1.07
   5   3  -2   55.75    1.91
   5   3  -2   53.65    2.04
  -5  -3   2   53.17    1.59
  -5  -3   2   47.86    2.00
   4   3  -2    6.40    0.82
   4   3  -2    6.10    0.72
  -4  -3   2    6.55    0.57
  -4  -3   2    5.68    0.79
   3   3  -2    2.94    0.51
   3   3  -2    3.47    0.55
  -3  -3   2    3.18    0.60
  -3  -3   2    2.93    0.33
   2   3  -2  186.62    3.32
  -2  -3   2  187.48    3.51
  -2  -3   2  196.27    2.60
  -2  -3   2  187.48    3.52
   1   3  -2  101.03    2.08
  -1  -3   2  104.02    2.16
  -1  -3   2  105.89    2.35
   0   3  -2  163.99    2.85
   0   3  -2  163.03    2.30
   0  -3   2  164.68    2.76
   0  -3   2  164.97    3.31
  -1   3  -2  674.24    9.46
  -1   3  -2  705.27    9.04
   1  -3   2  690.03    9.12
   1  -3   2  680.65   10.32
  -2   3  -2   91.03    1.92
   2  -3   2   90.99    2.34
   2  -3   2   89.50    1.35
   2  -3   2   88.96    2.11
  -3   3  -2   41.95    1.41
   3  -3   2   41.55    1.51
   3  -3   2   43.85    1.67
  -4   3  -2   30.94    1.39
   4  -3   2   33.03    1.43
  -5   3  -2    7.36    0.92
   5  -3   2    7.42    1.01
   5  -3   2    7.15    0.93
  -6   3  -2    2.79    0.72
   6  -3   2    2.42    0.77
   6  -3   2    2.13    0.70
  -7   3  -2    5.52    1.01
   7  -3   2    6.43    1.05
   7  -3   2    6.97    1.21
  -8   3  -2    0.49    0.73
   8  -3   2    1.01    0.77
   8  -3   2    2.34    0.98
  -9   3  -2   -0.35    0.65
   9  -3   2    0.24    0.91
   8   2  -2    1.96    0.79
   8   2  -2    1.69    0.87
  -8  -2   2    2.15    0.73
  -8  -2   2    2.38    0.88
   7   2  -2    0.11    0.55
   7   2  -2    0.20    0.66
  -7  -2   2    0.20    0.49
  -7  -2   2    1.54    0.74
   6   2  -2    2.11    0.73
   6   2  -2    3.51    0.75
  -6  -2   2    2.96    0.78
  -6  -2   2    3.66    0.66
   5   2  -2   19.38    1.17
   5   2  -2   17.42    1.24
  -5  -2   2   14.67    1.27
  -5  -2   2   17.83    0.99
   4   2  -2  167.55    3.37
   4   2  -2  166.36    3.43
  -4  -2   2  163.37    3.52
  -4  -2   2  166.81    3.00
   3   2  -2  500.56    7.41
   3   2  -2  509.26    7.65
  -3  -2   2  509.53    6.88
  -3  -2   2  489.95    7.65
   2   2  -2    2.36    0.40
   2   2  -2    3.18    0.42
  -2  -2   2    3.56    0.30
  -2  -2   2    3.45    0.47
  -2  -2   2    3.84    0.45
   1   2  -2   52.18    1.26
   1   2  -2   50.79    0.90
  -1  -2   2   53.38    1.36
  -1  -2   2   52.25    1.33
   0   2  -2  492.09    6.67
   0   2  -2  488.52    6.18
   0  -2   2  475.19    7.24
   0  -2   2  475.46    6.64
  -1   2  -2   35.46    0.99
  -1   2  -2   36.27    0.91
   1  -2   2   35.00    0.79
   1  -2   2   34.83    1.23
  -2   2  -2   39.63    1.14
   2  -2   2   39.69    0.77
   2  -2   2   38.73    1.37
   2  -2   2   39.81    1.20
  -3   2  -2   76.05    1.91
   3  -2   2   78.65    1.94
  -4   2  -2    0.67    0.40
  -4   2  -2    2.02    0.31
   4  -2   2    0.98    0.43
   4  -2   2    0.93    0.49
  -5   2  -2    3.39    0.45
  -5   2  -2    1.83    0.57
   5  -2   2    2.45    0.71
   5  -2   2    2.27    0.59
  -6   2  -2    1.13    0.64
   6  -2   2    0.26    0.53
   6  -2   2    0.03    0.61
  -7   2  -2   28.31    1.72
   7  -2   2   30.67    1.74
   7  -2   2   33.41    1.96
  -8   2  -2    1.51    0.82
   8  -2   2    3.54    1.05
  -9   2  -2   15.48    1.69
   9  -2   2   17.23    1.98
  -9  -1   2    0.20    0.66
   8   1  -2    0.70    0.71
   8   1  -2    0.28    0.73
  -8  -1   2    1.47    0.67
  -8  -1   2    0.33    0.66
   7   1  -2   18.30    1.56
   7   1  -2   18.49    1.51
  -7  -1   2   19.03    1.60
  -7  -1   2   17.83    1.26
   6   1  -2   23.71    1.51
   6   1  -2   24.41    1.42
  -6  -1   2   22.45    1.28
  -6  -1   2   21.47    1.47
   5   1  -2   23.82    1.33
   5   1  -2   20.78    1.22
  -5  -1   2   26.28    1.33
  -5  -1   2   20.66    1.12
   4   1  -2  143.99    3.03
   4   1  -2  140.21    3.00
  -4  -1   2  143.60    2.85
  -4  -1   2  143.82    3.10
   3   1  -2  376.03    5.87
   3   1  -2  387.16    5.89
  -3  -1   2  388.12    5.61
  -3  -1   2  377.90    5.98
   2   1  -2  253.24    4.08
   2   1  -2  265.51    4.01
  -2  -1   2  259.87    4.19
  -2  -1   2  265.11    3.85
   1   1  -2   70.36    1.45
   1   1  -2   70.92    1.31
  -1  -1   2   68.53    1.49
  -1  -1   2   72.28    1.39
   0   1  -2   92.06    1.45
   0   1  -2   91.63    1.58
   0  -1   2   87.81    1.73
   0  -1   2   89.74    1.62
  -1   1  -2   20.36    0.69
  -1   1  -2   21.34    0.64
   1  -1   2   21.31    0.62
  -2   1  -2    3.42    0.34
  -2   1  -2    3.50    0.42
   2  -1   2    4.11    0.42
   2  -1   2    3.88    0.51
  -3   1  -2   27.55    0.87
  -3   1  -2   27.78    1.07
   3  -1   2   28.87    1.02
  -4   1  -2    1.66    0.36
  -4   1  -2    1.83    0.48
   4  -1   2    0.76    0.46
   4  -1   2    1.46    0.41
  -5   1  -2    9.80    0.80
  -5   1  -2    9.28    0.96
   5  -1   2    7.36    1.02
   5  -1   2   12.34    1.00
  -6   1  -2   12.07    1.21
  -6   1  -2   12.08    0.98
   6  -1   2   11.50    1.10
   6  -1   2   11.17    1.33
  -7   1  -2   65.02    2.48
   7  -1   2   68.10    2.36
   7  -1   2   68.01    2.79
  -8   1  -2    0.59    0.61
   8  -1   2   -0.38    0.77
  -9   1  -2   19.83    1.86
   9  -1   2   22.03    2.22
   9   0  -2    1.90    0.88
  -9   0   2    1.01    0.71
   8   0  -2    7.18    1.18
  -8   0   2    6.44    1.01
   7   0  -2    2.23    0.79
   7   0  -2    4.38    0.86
  -7   0   2    4.22    0.86
  -7   0   2    2.74    0.75
   6   0  -2   71.09    2.40
   6   0  -2   76.75    2.43
  -6   0   2   72.71    2.35
  -6   0   2   78.62    2.43
   5   0  -2   27.04    1.39
   5   0  -2   27.46    1.41
  -5   0   2   26.77    1.31
  -5   0   2   27.07    1.32
   4   0  -2  120.29    2.75
   4   0  -2  121.95    2.61
  -4   0   2  122.27    2.67
  -4   0   2  121.16    2.67
   3   0  -2  162.78    2.94
   3   0  -2  172.38    3.22
  -3   0   2  168.11    3.11
  -3   0   2  172.38    3.12
   2   0  -2   12.72    0.53
   2   0  -2   12.62    0.66
  -2   0   2   12.98    0.67
  -2   0   2   13.22    0.70
   1   0  -2  621.96    8.31
   1   0  -2  639.28    8.41
  -1   0   2  625.42    8.55
   0   0  -2  123.00    1.87
   0   0  -2  120.82    1.91
   0   0   2  122.85    2.08
   0   0   2  119.78    1.90
  -1   0  -2  229.44    3.07
  -1   0  -2  228.52    3.47
  -1   0  -2  227.63    3.35
  -2   0  -2    8.89    0.54
  -2   0  -2    7.45    0.52
   2   0   2    9.57    0.43
   2   0   2    9.53    0.68
  -3   0  -2   39.49    1.19
  -3   0  -2   38.91    1.23
   3   0   2   38.81    1.07
   3   0   2   39.58    1.44
  -4   0  -2  159.30    3.19
  -4   0  -2  161.27    3.11
   4   0   2  160.38    3.59
   4   0   2  158.21    2.94
  -5   0  -2   14.45    1.00
  -5   0  -2   14.57    1.14
   5   0   2   15.03    1.34
   5   0   2   15.59    0.96
  -6   0  -2  117.68    2.88
  -6   0  -2  110.37    2.96
   6   0   2  106.33    3.35
   6   0   2  109.22    2.76
  -7   0  -2   17.89    1.48
   7   0   2   17.30    1.71
  -8   0  -2    5.22    1.03
   8   0   2    4.50    1.19
  -9   0  -2    4.57    1.08
   9   0   2    5.38    1.36
   9  -1  -2    3.42    1.07
  -9   1   2    2.28    0.89
   8  -1  -2    5.83    1.11
  -8   1   2    4.55    0.98
   7  -1  -2   69.42    2.60
   7  -1  -2   72.17    2.52
  -7   1   2   71.69    2.60
   6  -1  -2   19.37    1.41
   6  -1  -2   18.34    1.49
  -6   1   2   17.54    1.23
  -6   1   2   18.15    1.26
   5  -1  -2    3.35    0.70
   5  -1  -2    3.15    0.63
  -5   1   2    3.52    0.70
  -5   1   2    2.17    0.55
   4  -1  -2   55.76    1.81
   4  -1  -2   57.61    1.61
  -4   1   2   61.17    1.87
  -4   1   2   55.91    1.63
   3  -1  -2   -0.34    0.21
   3  -1  -2   -0.13    0.23
  -3   1   2    0.14    0.29
  -3   1   2    0.36    0.25
   2  -1  -2  246.17    3.96
   2  -1  -2  239.93    4.06
   2  -1  -2  241.90    3.56
  -2   1   2  241.30    4.04
  -2   1   2  249.66    3.86
   1  -1  -2  277.64    3.80
   1  -1  -2  279.18    4.26
   1  -1  -2  287.01    4.18
  -1   1   2  288.93    4.28
   0  -1  -2  325.15    4.38
   0  -1  -2  322.47    4.53
   0   1   2  329.88    4.81
   0   1   2  320.31    4.55
  -1  -1  -2   64.58    1.49
  -1  -1  -2   63.86    1.32
   1   1   2   64.50    1.47
  -2  -1  -2    6.91    0.59
  -2  -1  -2    7.58    0.51
   2   1   2    7.34    0.28
   2   1   2    6.86    0.63
  -3  -1  -2  551.05    8.28
  -3  -1  -2  574.92    7.99
   3   1   2  558.68    7.51
   3   1   2  573.52    8.79
  -4  -1  -2  169.40    3.29
  -4  -1  -2  168.82    3.42
   4   1   2  168.28    2.90
   4   1   2  167.22    3.78
  -5  -1  -2   37.88    1.60
  -5  -1  -2   40.94    1.60
   5   1   2   37.16    1.85
   5   1   2   37.44    1.33
  -6  -1  -2    3.69    0.76
  -6  -1  -2    4.21    0.81
   6   1   2    2.81    0.64
   6   1   2    3.29    0.90
  -7  -1  -2   29.28    1.64
  -7  -1  -2   30.05    1.70
   7   1   2   28.52    1.88
  -8  -1  -2    2.33    0.85
   8   1   2    2.16    0.99
  -9  -1  -2   -0.21    0.66
   9   1   2   -0.78    0.86
   9  -2  -2    3.01    1.02
  -9   2   2    0.31    0.78
   8  -2  -2    7.73    1.22
  -8   2   2    4.31    0.98
   7  -2  -2   14.11    1.32
   7  -2  -2   11.45    1.31
  -7   2   2   17.09    1.53
   6  -2  -2    1.19    0.59
   6  -2  -2    1.82    0.62
  -6   2   2    2.02    0.58
  -6   2   2    1.65    0.68
   5  -2  -2   21.04    1.35
   5  -2  -2   23.86    1.23
  -5   2   2   25.66    1.48
  -5   2   2   26.70    1.21
   4  -2  -2   62.58    1.98
   4  -2  -2   58.40    1.67
  -4   2   2   62.53    1.65
  -4   2   2   58.69    1.95
   3  -2  -2    5.86    0.51
   3  -2  -2    4.60    0.62
  -3   2   2    5.09    0.51
  -3   2   2    5.21    0.67
   2  -2  -2   13.90    0.78
   2  -2  -2   14.30    0.63
   2  -2  -2   13.82    0.83
  -2   2   2   12.45    0.65
   1  -2  -2   32.74    0.85
  -1   2   2   30.96    0.99
   0  -2  -2  147.96    2.35
   0  -2  -2  141.82    2.45
   0  -2  -2  148.38    2.66
   0   2   2  143.75    2.41
  -1  -2  -2   88.85    1.34
  -1  -2  -2   87.57    1.99
  -1  -2  -2   88.71    1.71
   1   2   2   85.36    1.87
  -2  -2  -2   21.75    0.82
  -2  -2  -2   23.25    1.03
   2   2   2   23.60    1.03
  -3  -2  -2  836.03   11.94
  -3  -2  -2  854.78   11.28
   3   2   2  833.02   12.34
   3   2   2  807.30   10.65
  -4  -2  -2   46.41    1.70
  -4  -2  -2   47.64    1.52
   4   2   2   49.55    1.93
   4   2   2   48.70    1.19
  -5  -2  -2   41.04    1.80
  -5  -2  -2   43.08    1.64
   5   2   2   45.08    2.05
   5   2   2   42.48    1.32
  -6  -2  -2   26.86    1.47
  -6  -2  -2   26.87    1.61
   6   2   2   26.30    1.72
  -7  -2  -2    6.65    0.99
  -7  -2  -2    7.76    1.14
   7   2   2    5.78    1.18
  -8  -2  -2    4.42    0.98
   8   2   2    2.97    1.08
  -9  -2  -2   -0.08    0.72
   9   2   2   -0.13    0.94
   9  -3  -2    0.44    0.85
  -9   3   2   -0.70    0.67
   8  -3  -2   15.04    1.70
  -8   3   2   12.51    1.56
   7  -3  -2    6.85    1.16
  -7   3   2    6.18    1.08
   6  -3  -2   25.54    1.48
   6  -3  -2   21.93    1.52
  -6   3   2   26.66    1.64
   5  -3  -2   -0.04    0.47
   5  -3  -2   -0.10    0.52
  -5   3   2    0.50    0.51
  -5   3   2    0.75    0.41
   4  -3  -2    3.50    0.57
   4  -3  -2    3.64    0.66
  -4   3   2    4.37    0.76
  -4   3   2    3.16    0.48
   3  -3  -2    0.30    0.37
   3  -3  -2    1.02    0.36
  -3   3   2    0.79    0.31
  -3   3   2    0.45    0.40
   2  -3  -2  463.19    6.89
   2  -3  -2  458.96    6.98
   2  -3  -2  449.06    7.05
  -2   3   2  455.65    6.70
   1  -3  -2  170.92    3.07
   1  -3  -2  174.94    3.12
   1  -3  -2  171.33    3.04
   1  -3  -2  170.96    3.17
  -1   3   2  178.38    3.14
   0  -3  -2  250.77    3.93
   0  -3  -2  250.38    3.92
   0  -3  -2  250.23    4.22
   0  -3  -2  259.24    4.12
  -1  -3  -2   36.01    1.02
  -1  -3  -2   34.85    0.85
  -1  -3  -2   34.51    1.27
   1   3   2   33.43    1.19
  -2  -3  -2  550.08    8.55
  -2  -3  -2  578.92    7.86
   2   3   2  566.33    7.32
   2   3   2  569.99    8.70
  -3  -3  -2   63.84    1.98
  -3  -3  -2   61.32    1.60
   3   3   2   62.87    2.01
   3   3   2   64.59    1.21
  -4  -3  -2    4.88    0.79
  -4  -3  -2    4.28    0.61
   4   3   2    4.14    0.41
   4   3   2    4.46    0.77
  -5  -3  -2    3.14    0.73
  -5  -3  -2    1.66    0.53
   5   3   2    4.41    0.88
  -6  -3  -2    0.79    0.57
  -6  -3  -2    0.55    0.45
   6   3   2    0.25    0.70
  -7  -3  -2    6.80    0.98
  -7  -3  -2    5.60    1.07
   7   3   2    4.72    1.11
  -8  -3  -2   19.71    1.91
  -8  -3  -2   19.69    1.66
   8   3   2   17.51    1.90
   9   3   2    6.65    1.42
   9  -4  -2   -0.78    0.76
  -9   4   2    0.92    0.88
   8  -4  -2    0.28    0.75
  -8   4   2    1.68    0.82
   7  -4  -2   51.30    2.47
  -7   4   2   50.87    2.47
   6  -4  -2    0.36    0.57
   6  -4  -2   -0.22    0.52
  -6   4   2    0.48    0.57
   5  -4  -2    5.30    0.90
   5  -4  -2    5.36    0.81
  -5   4   2    4.68    0.90
   4  -4  -2   22.81    1.24
   4  -4  -2   21.47    1.34
  -4   4   2   22.54    1.38
  -4   4   2   24.28    1.01
   3  -4  -2   26.36    1.21
   3  -4  -2   27.26    1.35
  -3   4   2   29.44    1.40
  -3   4   2   28.26    1.07
   2  -4  -2  351.20    5.86
   2  -4  -2  358.79    5.93
   2  -4  -2  349.78    5.79
  -2   4   2  345.64    5.45
   1  -4  -2  503.91    7.55
   1  -4  -2  522.99    7.65
   1  -4  -2  503.99    7.58
   1  -4  -2  509.72    7.81
   0  -4  -2  256.46    4.17
   0  -4  -2  255.89    4.15
   0  -4  -2  258.18    4.45
   0  -4  -2  250.20    4.43
  -1  -4  -2    5.20    0.65
  -1  -4  -2    4.92    0.50
   1   4   2    4.38    0.59
   1   4   2    4.65    0.43
  -2  -4  -2   80.62    1.83
  -2  -4  -2   80.10    2.27
   2   4   2   83.73    2.28
   2   4   2   82.24    1.52
  -3  -4  -2   10.53    0.72
  -3  -4  -2   10.03    1.01
   3   4   2   11.49    1.07
   3   4   2   11.23    0.55
  -4  -4  -2   49.36    1.61
  -4  -4  -2   53.52    2.12
   4   4   2   50.50    2.12
   4   4   2   52.65    1.26
  -5  -4  -2    5.64    0.77
  -5  -4  -2    5.42    0.96
   5   4   2    4.16    0.92
  -6  -4  -2    4.80    0.78
  -6  -4  -2    4.89    1.01
   6   4   2    3.01    0.92
  -7  -4  -2    4.80    1.06
  -7  -4  -2    5.59    0.91
   7   4   2    5.42    1.19
  -8  -4  -2    3.76    1.07
   8   4   2    1.69    1.03
   9   4   2    1.74    1.10
   9  -5  -2    0.17    0.87
  -9   5   2    1.46    0.99
   8  -5  -2    2.76    0.99
  -8   5   2    2.65    1.00
   7  -5  -2    3.84    0.96
  -7   5   2    4.59    1.10
   6  -5  -2    0.76    0.59
   6  -5  -2    0.63    0.64
  -6   5   2    0.24    0.61
   5  -5  -2   38.66    2.00
   5  -5  -2   41.01    1.82
  -5   5   2   39.70    2.02
   4  -5  -2   74.75    2.34
   4  -5  -2   71.63    2.49
  -4   5   2   72.69    1.83
  -4   5   2   78.00    2.56
   3  -5  -2   58.43    2.12
   3  -5  -2   61.31    2.01
  -3   5   2   58.04    2.06
  -3   5   2   55.60    1.62
   2  -5  -2  146.04    3.27
   2  -5  -2  148.35    3.34
   2  -5  -2  148.84    3.36
  -2   5   2  145.19    2.95
   1  -5  -2  109.61    2.62
   1  -5  -2  110.14    2.70
   1  -5  -2  110.86    2.51
   1  -5  -2  107.81    2.57
   0  -5  -2   19.44    1.00
   0  -5  -2   21.74    1.01
   0  -5  -2   23.41    1.16
   0  -5  -2   22.84    1.16
  -1  -5  -2   10.17    0.93
  -1  -5  -2   10.00    0.94
  -1  -5  -2    9.57    0.74
   1   5   2   10.57    0.65
   1   5   2    8.84    0.88
  -2  -5  -2    0.80    0.35
  -2  -5  -2    0.09    0.42
   2   5   2    0.67    0.27
   2   5   2   -0.29    0.40
  -3  -5  -2   17.60    1.23
  -3  -5  -2   18.56    0.93
   3   5   2   20.76    1.37
   3   5   2   18.52    0.75
  -4  -5  -2    8.79    1.11
  -4  -5  -2    8.16    0.78
   4   5   2    6.20    0.96
  -5  -5  -2    3.12    0.83
  -5  -5  -2    1.34    0.51
   5   5   2    2.30    0.78
  -6  -5  -2   23.59    1.33
  -6  -5  -2   25.48    1.78
   6   5   2   22.82    1.97
  -7  -5  -2    0.91    0.80
   7   5   2    1.81    0.91
  -8  -5  -2    5.45    1.29
   8   5   2    4.48    1.25
   8  -6  -2   32.82    2.23
  -8   6   2   26.80    2.33
   7  -6  -2   30.61    2.13
  -7   6   2   30.91    2.15
   6  -6  -2    0.43    0.68
  -6   6   2    1.61    0.77
   5  -6  -2   59.56    2.52
   5  -6  -2   67.61    2.46
  -5   6   2   56.73    2.43
   4  -6  -2   61.44    2.40
   4  -6  -2   62.82    2.32
  -4   6   2   66.46    2.47
   3  -6  -2    7.68    1.01
   3  -6  -2    7.68    0.95
  -3   6   2    8.47    1.03
  -3   6   2    8.06    0.79
   2  -6  -2    7.40    0.91
   2  -6  -2    6.82    0.75
   2  -6  -2    6.06    0.86
  -2   6   2    6.17    0.73
  -2   6   2    7.09    0.88
   1  -6  -2   81.71    2.30
   1  -6  -2   83.37    2.39
   1  -6  -2   84.10    2.53
   1  -6  -2   85.70    2.28
   0  -6  -2   68.98    2.25
   0  -6  -2   64.09    2.03
   0  -6  -2   62.98    1.93
   0  -6  -2   66.50    1.89
  -1  -6  -2   37.57    1.73
  -1  -6  -2   41.53    1.73
  -1  -6  -2   39.80    1.37
   1   6   2   36.68    1.27
  -2  -6  -2    0.52    0.37
  -2  -6  -2    0.64    0.52
   2   6   2    0.76    0.54
   2   6   2    0.49    0.33
  -3  -6  -2    4.88    0.87
  -3  -6  -2    5.68    0.65
   3   6   2    4.66    0.87
   3   6   2    4.67    0.53
  -4  -6  -2    1.28    0.48
  -4  -6  -2    0.04    0.58
   4   6   2    0.86    0.67
  -5  -6  -2   36.47    2.03
   5   6   2   31.31    2.00
  -6  -6  -2   57.68    2.74
   6   6   2   57.98    2.81
  -7  -6  -2    3.68    1.09
   7   6   2    4.47    1.24
  -8  -6  -2    8.19    1.58
   8   6   2    9.17    1.67
   8  -7  -2   18.73    2.09
  -8   7   2   16.10    1.92
   7  -7  -2    8.06    1.39
  -7   7   2    5.60    1.23
   6  -7  -2    8.37    1.31
  -6   7   2   10.26    1.40
   5  -7  -2   48.85    2.24
   5  -7  -2   43.78    2.25
  -5   7   2   46.95    2.29
   4  -7  -2   75.72    2.84
   4  -7  -2   81.03    2.71
  -4   7   2   72.99    2.65
   3  -7  -2    0.19    0.54
   3  -7  -2    0.26    0.59
  -3   7   2    0.43    0.55
  -3   7   2    0.52    0.42
   2  -7  -2    1.13    0.62
   2  -7  -2   -0.64    0.46
   2  -7  -2    0.31    0.43
  -2   7   2    0.05    0.41
   1  -7  -2    5.15    0.88
   1  -7  -2    6.14    0.83
   1  -7  -2    5.69    0.86
   1  -7  -2    6.59    0.85
   0  -7  -2   53.31    1.99
   0  -7  -2   55.79    1.86
   0  -7  -2   53.80    2.19
   0  -7  -2   54.76    1.92
  -1  -7  -2   17.76    1.34
  -1  -7  -2   17.57    1.04
  -1  -7  -2   14.40    1.27
   1   7   2   15.39    0.96
  -2  -7  -2    6.04    0.95
  -2  -7  -2    6.35    0.72
   2   7   2    7.70    1.09
   2   7   2    9.69    0.82
  -3  -7  -2    1.61    0.48
  -3  -7  -2    1.60    0.71
   3   7   2    1.77    0.75
  -4  -7  -2   43.58    2.21
   4   7   2   43.91    2.35
  -5  -7  -2   79.59    3.14
   5   7   2   90.15    3.36
  -6  -7  -2   16.05    1.79
   6   7   2   16.46    1.86
  -7  -7  -2    1.98    0.97
   7   7   2    0.64    0.96
  -8  -7  -2   -0.58    0.88
   8   7   2   -0.35    0.90
   8  -8  -2    9.74    1.64
  -8   8   2    9.68    1.64
   7  -8  -2    6.06    1.28
  -7   8   2    5.79    1.34
   6  -8  -2   16.72    1.82
  -6   8   2   11.88    1.54
   5  -8  -2    2.12    0.88
  -5   8   2    4.23    0.98
   4  -8  -2    0.40    0.68
   4  -8  -2   -0.19    0.57
  -4   8   2    0.15    0.52
   3  -8  -2    0.82    0.64
   3  -8  -2   -0.18    0.56
  -3   8   2    0.91    0.56
   2  -8  -2   -0.59    0.53
   2  -8  -2   -0.66    0.41
   2  -8  -2   -0.07    0.57
  -2   8   2    0.10    0.49
   1  -8  -2    0.80    0.54
   1  -8  -2    0.05    0.54
   1  -8  -2   -0.35    0.46
   1  -8  -2   -0.15    0.54
   0  -8  -2    0.19    0.47
   0  -8  -2   -0.38    0.42
   0  -8  -2   -0.45    0.57
   0   8   2   -0.26    0.43
  -1  -8  -2   77.39    2.87
  -1  -8  -2   84.92    2.33
  -1  -8  -2   82.27    2.75
   1   8   2   85.18    2.36
  -2  -8  -2   58.68    2.38
   2   8   2   55.13    1.77
   2   8   2   54.81    2.51
  -3  -8  -2    6.46    1.10
   3   8   2    5.86    1.13
  -4  -8  -2   16.11    1.67
   4   8   2   17.95    1.84
  -5  -8  -2   31.46    2.07
   5   8   2   31.46    2.23
  -6  -8  -2    0.86    0.79
   6   8   2    0.94    0.90
  -7  -8  -2    3.39    1.13
   7   8   2    6.14    1.42
   7  -9  -2    0.59    0.82
  -7   9   2   -0.29    0.87
   6  -9  -2    1.52    0.92
  -6   9   2    1.55    0.88
   5  -9  -2   12.59    1.61
  -5   9   2   15.97    1.64
   4  -9  -2    6.56    1.13
   4  -9  -2    6.93    1.23
  -4   9   2    7.66    1.16
   3  -9  -2    4.14    0.95
   3  -9  -2    5.08    1.02
  -3   9   2    2.44    0.74
   2  -9  -2   22.18    1.57
   2  -9  -2   19.99    1.73
  -2   9   2   22.42    1.44
   1  -9  -2   21.97    1.55
   1  -9  -2   25.82    1.52
   1  -9  -2   23.54    1.71
  -1   9   2   20.16    1.33
   0  -9  -2   27.29    1.66
   0  -9  -2   31.59    1.57
   0  -9  -2   29.74    1.92
   0   9   2   29.47    1.56
  -1  -9  -2   29.86    1.93
  -1  -9  -2   29.52    1.74
   1   9   2   32.49    1.56
  -2  -9  -2   82.20    3.01
   2   9   2   78.51    3.19
  -3  -9  -2   11.27    1.43
   3   9   2   15.34    1.72
  -4  -9  -2   33.87    2.17
   4   9   2   29.68    2.24
   5   9   2    1.19    0.92
  -6  -9  -2    8.45    1.52
   6   9   2   10.75    1.78
   6 -10  -2    4.14    1.18
  -6  10   2    4.02    1.17
   5 -10  -2    4.06    1.10
  -5  10   2    7.09    1.27
   4 -10  -2    4.81    1.08
   4 -10  -2    6.55    1.22
  -4  10   2    5.40    1.06
   3 -10  -2    0.11    0.62
   3 -10  -2   -0.38    0.64
  -3  10   2    0.63    0.62
   2 -10  -2   24.23    1.82
   2 -10  -2   22.38    1.88
  -2  10   2   21.15    1.47
   1 -10  -2  121.17    3.93
   1 -10  -2  118.80    3.40
  -1  10   2  120.22    3.26
  -1  10   2  125.75    3.60
   0 -10  -2   39.94    2.33
   0 -10  -2   41.77    2.07
   0  10   2   37.95    1.88
  -1 -10  -2   40.73    2.43
  -1 -10  -2   44.79    2.25
   1  10   2   40.79    1.87
  -2 -10  -2   34.03    2.10
   2  10   2   29.32    2.12
  -3 -10  -2    5.27    1.12
   3  10   2    3.39    1.10
  -4 -10  -2    0.89    0.83
   4  10   2    1.19    1.02
  -5 -10  -2    0.51    0.84
   5  10   2    2.16    1.12
   5 -11  -2    3.08    1.11
  -5  11   2    3.17    1.01
   4 -11  -2    0.43    0.81
  -4  11   2   -0.20    0.65
   3 -11  -2   27.71    2.02
   3 -11  -2   23.03    2.06
  -3  11   2   25.18    1.72
   2 -11  -2   70.41    3.04
   2 -11  -2   68.84    2.95
  -2  11   2   61.24    2.70
   1 -11  -2   25.96    2.22
  -1  11   2   24.90    1.73
   0 -11  -2    2.52    0.84
   0 -11  -2    2.26    1.00
   0  11   2    1.37    0.70
  -1 -11  -2   24.20    2.05
  -1 -11  -2   22.24    2.16
   1  11   2   24.36    2.28
  -2 -11  -2    4.72    1.12
   2  11   2    5.45    1.30
  -3 -11  -2   10.41    1.57
   3  11   2    7.56    1.56
  -4 -11  -2   -0.03    0.79
   4  11   2    0.54    1.08
   4 -12  -2    6.46    1.38
   3 -12  -2   11.74    1.67
   3 -12  -2   11.84    1.61
  -3  12   2   14.34    1.67
   2 -12  -2   40.53    2.51
  -2  12   2   35.38    2.20
   1 -12  -2    1.34    0.92
  -1  12   2    1.13    0.77
   0 -12  -2    0.95    0.96
  -1 -12  -2    0.74    0.86
   1  12   2    1.60    1.07
  -2 -12  -2   12.39    1.73
   2  12   2    8.35    1.60
  -3 -12  -2    2.78    1.11
   3  12   2    4.50    1.49
   2 -13  -2   16.52    1.98
  -2  13   2   12.30    1.63
   1 -13  -2    7.70    1.49
  -1  13   2    6.88    1.27
   0 -13  -2   -0.21    0.84
  -1 -13  -2   -0.23    0.80
   1  13   2   -0.22    1.00
   1  13  -3    4.79    1.21
  -1 -13   3    4.22    1.33
   0  13  -3   11.85    1.67
   0 -13   3   12.40    1.87
  -1  13  -3    4.63    1.20
   1 -13   3    4.29    1.33
  -2  13  -3    2.65    1.08
   2 -13   3    4.82    1.34
   3  12  -3   23.21    2.49
   3  12  -3   19.63    1.89
  -3 -12   3   19.75    2.29
  -3 -12   3   20.04    2.04
   2  12  -3   19.04    1.86
  -2 -12   3   20.25    1.98
  -2 -12   3   14.07    1.96
   1  12  -3    0.58    0.74
  -1 -12   3    2.08    1.06
   0  12  -3    2.43    0.92
   0 -12   3    1.96    0.97
  -1  12  -3    0.17    0.77
   1 -12   3    1.88    0.99
  -2  12  -3   12.10    1.59
   2 -12   3   15.39    1.93
  -3  12  -3    1.20    0.84
   3 -12   3    0.98    0.97
  -4  12  -3    1.30    0.92
   4 -12   3   -0.40    0.82
   5  11  -3    0.40    1.05
  -5 -11   3   -0.09    0.84
   4  11  -3    6.70    1.46
  -4 -11   3    5.85    1.30
   3  11  -3    9.67    1.32
  -3 -11   3    9.01    1.55
  -3 -11   3    8.66    1.41
   2  11  -3    0.88    0.75
  -2 -11   3    2.01    0.99
  -2 -11   3    2.35    0.92
   1  11  -3    3.25    0.88
  -1 -11   3    1.98    0.94
  -1 -11   3    3.56    0.92
   0  11  -3    0.36    0.72
   0 -11   3    0.43    0.78
  -1  11  -3    3.85    0.94
   1 -11   3    3.82    1.17
  -2  11  -3    3.89    1.02
   2 -11   3    2.54    1.05
  -3  11  -3   27.40    1.95
   3 -11   3   27.87    2.48
  -4  11  -3   31.99    2.23
   4 -11   3   33.73    2.49
  -5  11  -3    6.21    1.28
   5 -11   3    5.24    1.39
   6  10  -3    7.59    1.60
  -6 -10   3    7.29    1.50
   5  10  -3    0.88    0.98
  -5 -10   3    0.49    0.86
   4  10  -3    4.43    1.21
   4  10  -3    4.19    0.98
  -4 -10   3    5.89    1.19
   3  10  -3    0.65    0.62
  -3 -10   3    0.00    0.70
  -3 -10   3   -0.31    0.68
   2  10  -3   16.44    1.57
  -2 -10   3   13.03    1.69
  -2 -10   3   12.03    1.45
   1  10  -3   15.83    1.49
  -1 -10   3   13.87    1.70
  -1 -10   3   14.73    1.48
   0  10  -3    7.43    1.16
   0 -10   3    4.57    0.90
   0 -10   3    7.90    1.40
  -1  10  -3   13.41    1.47
   1 -10   3   13.30    1.69
  -2  10  -3   16.61    1.63
   2 -10   3   15.34    1.81
  -3  10  -3   62.77    2.80
   3 -10   3   63.77    3.05
  -4  10  -3  108.24    3.76
   4 -10   3  112.18    4.24
  -5  10  -3   14.78    1.56
  -5  10  -3   13.29    1.66
   5 -10   3   14.66    1.88
  -6  10  -3   10.98    1.50
  -6  10  -3   10.74    1.58
   6 -10   3   11.38    1.80
   6   9  -3    0.82    0.98
  -6  -9   3   -0.27    0.72
   5   9  -3    5.44    1.28
   5   9  -3    6.85    1.15
  -5  -9   3    9.49    1.40
   4   9  -3    1.68    0.94
   4   9  -3    0.74    0.65
  -4  -9   3    0.60    0.70
   3   9  -3    0.90    0.56
  -3  -9   3   -0.26    0.62
  -3  -9   3   -0.42    0.62
   2   9  -3   20.32    1.49
  -2  -9   3   22.41    1.99
  -2  -9   3   22.44    1.60
   1   9  -3    7.42    1.03
  -1  -9   3    5.57    0.93
  -1  -9   3    6.56    1.17
   0   9  -3   65.56    2.48
   0  -9   3   69.42    2.31
   0  -9   3   62.10    2.89
  -1   9  -3   11.90    1.30
   1  -9   3   13.35    1.59
  -2   9  -3   52.24    2.30
   2  -9   3   47.80    2.53
  -3   9  -3  156.94    4.31
  -3   9  -3  155.36    3.58
   3  -9   3  153.26    4.73
  -4   9  -3   73.00    2.56
  -4   9  -3   77.79    3.03
   4  -9   3   75.54    3.35
  -5   9  -3    7.17    1.23
  -5   9  -3    5.34    1.03
   5  -9   3    4.52    1.19
  -6   9  -3    1.08    0.81
   6  -9   3   -0.55    0.65
   6  -9   3    1.07    0.96
  -7   9  -3    0.00    0.75
   7  -9   3    0.86    0.95
   7  -9   3    0.52    0.89
   7   8  -3    2.53    1.12
  -7  -8   3   -0.21    0.72
   6   8  -3    1.27    0.93
  -6  -8   3    0.49    0.75
   5   8  -3    2.80    0.84
   5   8  -3    2.98    1.01
  -5  -8   3    1.74    0.78
   4   8  -3   -0.37    0.52
   4   8  -3    0.65    0.75
  -4  -8   3   -0.17    0.60
   3   8  -3    4.49    0.81
  -3  -8   3    2.31    0.78
  -3  -8   3    4.55    0.95
   2   8  -3    3.62    0.76
  -2  -8   3    2.98    0.86
  -2  -8   3    5.40    0.95
   1   8  -3  125.29    3.29
  -1  -8   3  127.84    3.96
  -1  -8   3  129.68    3.34
   0   8  -3  168.03    3.92
   0  -8   3  159.19    4.53
   0  -8   3  164.50    3.66
  -1   8  -3   24.25    1.49
   1  -8   3   25.96    1.93
   1  -8   3   23.26    1.23
  -2   8  -3   13.97    1.36
  -2   8  -3   13.34    1.02
   2  -8   3   12.77    1.53
  -3   8  -3   66.91    2.58
  -3   8  -3   67.33    2.15
   3  -8   3   64.38    2.87
  -4   8  -3    8.53    1.20
  -4   8  -3   13.73    1.26
   4  -8   3   12.28    1.57
  -5   8  -3    0.45    0.65
   5  -8   3    0.55    0.76
   5  -8   3    0.82    0.70
  -6   8  -3    0.91    0.76
   6  -8   3    0.39    0.79
   6  -8   3    1.73    0.88
  -7   8  -3    3.43    1.07
   7  -8   3    4.16    1.16
   7  -8   3    4.96    1.32
  -8   8  -3    6.88    1.44
   8  -8   3    7.21    1.59
   8   7  -3    0.92    1.03
  -8  -7   3    2.02    1.07
   7   7  -3    0.59    0.88
  -7  -7   3    0.59    0.78
   6   7  -3   -0.06    0.76
   6   7  -3    1.09    0.69
  -6  -7   3    0.05    0.69
   5   7  -3    1.15    0.62
   5   7  -3    0.76    0.68
  -5  -7   3    1.77    0.74
   4   7  -3    0.80    0.55
   4   7  -3    1.26    0.68
  -4  -7   3    0.62    0.63
   3   7  -3   90.02    2.69
  -3  -7   3   86.24    2.85
  -3  -7   3   85.83    2.96
   2   7  -3   62.17    2.15
  -2  -7   3   63.47    2.50
  -2  -7   3   60.13    2.26
   1   7  -3  314.32    5.69
  -1  -7   3  317.02    5.74
  -1  -7   3  299.88    6.46
   0   7  -3   80.12    2.40
   0  -7   3   79.58    2.25
   0  -7   3   78.25    2.91
  -1   7  -3    2.51    0.43
  -1   7  -3    3.48    0.70
   1  -7   3    2.15    0.52
   1  -7   3    2.47    0.77
  -2   7  -3   28.14    1.58
  -2   7  -3   26.21    1.20
   2  -7   3   26.69    1.82
  -3   7  -3   35.90    1.86
  -3   7  -3   44.56    1.70
   3  -7   3   42.21    2.33
  -4   7  -3    9.69    1.09
   4  -7   3    8.06    1.13
   4  -7   3    9.34    1.32
  -5   7  -3    2.59    0.78
   5  -7   3    2.72    0.91
   5  -7   3    3.81    0.93
  -6   7  -3   23.44    1.68
   6  -7   3   29.77    1.91
   6  -7   3   28.50    2.13
  -7   7  -3    6.56    1.29
   7  -7   3    5.99    1.20
   7  -7   3    4.64    1.23
  -8   7  -3    0.67    0.94
   8  -7   3    1.46    1.06
   8  -7   3    1.32    0.97
   8   6  -3    0.34    0.94
  -8  -6   3    0.10    0.88
   7   6  -3    5.82    1.20
  -7  -6   3    2.56    1.06
   6   6  -3    8.77    1.14
   6   6  -3    7.71    1.22
  -6  -6   3    8.57    1.31
   5   6  -3    5.46    1.00
   5   6  -3    4.16    0.81
  -5  -6   3    2.55    0.80
   4   6  -3  100.74    2.89
   4   6  -3  100.10    3.05
  -4  -6   3   98.31    3.09
   3   6  -3   23.14    1.36
  -3  -6   3   19.27    1.32
  -3  -6   3   21.30    1.42
   2   6  -3  202.08    4.07
  -2  -6   3  210.46    4.62
  -2  -6   3  198.03    4.27
   1   6  -3  134.15    3.08
  -1  -6   3  141.02    3.18
  -1  -6   3  132.33    3.58
   0   6  -3   20.77    1.13
   0   6  -3   23.16    0.68
   0  -6   3   21.16    1.48
   0  -6   3   23.00    1.11
  -1   6  -3   29.10    1.41
  -1   6  -3   26.87    0.99
   1  -6   3   30.40    1.74
   1  -6   3   28.14    1.10
  -2   6  -3   41.08    1.40
  -2   6  -3   42.50    1.73
   2  -6   3   43.63    2.17
   2  -6   3   43.20    1.19
  -3   6  -3    2.48    0.66
  -3   6  -3    2.59    0.59
   3  -6   3    3.43    0.86
   3  -6   3    2.36    0.70
  -4   6  -3  129.27    3.25
   4  -6   3  131.87    3.86
   4  -6   3  121.98    3.49
  -5   6  -3   10.47    1.17
   5  -6   3   14.59    1.58
   5  -6   3   10.46    1.28
  -6   6  -3   53.58    2.37
   6  -6   3   50.41    2.61
   6  -6   3   55.21    2.49
  -7   6  -3   16.56    1.69
   7  -6   3   18.26    1.95
   7  -6   3   14.03    1.62
  -8   6  -3   15.70    1.79
   8  -6   3   20.47    2.00
   8  -6   3   17.03    2.04
   8   5  -3    2.15    1.01
  -8  -5   3    1.83    0.98
   7   5  -3   10.64    1.28
   7   5  -3   13.04    1.54
  -7  -5   3   10.64    1.48
   6   5  -3    1.47    0.68
   6   5  -3    1.73    0.77
  -6  -5   3    1.82    0.73
   5   5  -3   33.39    1.66
   5   5  -3   35.11    1.85
  -5  -5   3   33.64    1.83
   4   5  -3   86.35    2.57
   4   5  -3   86.43    2.72
  -4  -5   3   85.21    2.76
   3   5  -3   13.40    1.11
  -3  -5   3   10.89    1.09
  -3  -5   3   13.23    1.16
   2   5  -3   50.89    1.70
  -2  -5   3   53.78    1.84
  -2  -5   3   51.28    1.89
   1   5  -3   52.04    1.67
  -1  -5   3   55.21    2.01
  -1  -5   3   55.01    1.70
   0   5  -3    1.79    0.43
   0   5  -3    2.42    0.27
   0  -5   3    1.81    0.40
   0  -5   3    1.62    0.58
  -1   5  -3  319.96    4.69
  -1   5  -3  317.98    5.39
   1  -5   3  310.91    4.88
   1  -5   3  317.11    6.18
  -2   5  -3   17.90    1.07
  -2   5  -3   16.69    0.89
   2  -5   3   16.75    0.66
   2  -5   3   14.82    1.32
  -3   5  -3    0.21    0.38
   3  -5   3    0.44    0.56
   3  -5   3    0.49    0.49
  -4   5  -3   16.09    1.30
   4  -5   3   12.97    1.35
   4  -5   3   15.67    1.35
  -5   5  -3   41.88    1.90
   5  -5   3   43.20    2.18
   5  -5   3   43.01    2.02
  -6   5  -3  149.27    4.05
   6  -5   3  149.13    4.04
   6  -5   3  158.58    4.48
  -7   5  -3   36.52    2.13
   7  -5   3   36.57    2.29
   7  -5   3   37.85    2.12
  -8   5  -3    9.02    1.41
   8  -5   3    9.39    1.54
   8  -5   3    8.47    1.34
  -9   5  -3    3.12    1.12
   9  -5   3    4.91    1.34
  -9  -4   3   -0.22    0.96
   8   4  -3    4.10    1.10
  -8  -4   3    4.88    1.16
   7   4  -3   22.78    1.86
   7   4  -3   19.21    1.65
  -7  -4   3   19.39    1.88
   6   4  -3   -0.81    0.50
   6   4  -3    0.04    0.54
  -6  -4   3   -0.42    0.56
   5   4  -3   84.35    2.60
   5   4  -3   86.75    2.70
  -5  -4   3   82.62    2.85
   4   4  -3    4.24    0.72
   4   4  -3    5.81    0.82
  -4  -4   3    4.12    0.78
   3   4  -3   82.09    2.26
   3   4  -3   82.58    2.32
  -3  -4   3   83.07    1.41
  -3  -4   3   82.26    2.38
   2   4  -3    0.38    0.34
  -2  -4   3    0.58    0.36
  -2  -4   3    0.63    0.38
   1   4  -3    9.10    0.76
  -1  -4   3    9.96    0.90
  -1  -4   3    9.43    0.78
   0   4  -3   11.15    0.74
   0   4  -3   13.12    0.49
   0  -4   3   11.82    1.04
   0  -4   3   12.96    0.72
  -1   4  -3    3.14    0.38
  -1   4  -3    3.38    0.50
   1  -4   3    2.61    0.61
   1  -4   3    3.97    0.42
  -2   4  -3  114.06    2.33
  -2   4  -3  108.43    2.54
   2  -4   3  111.89    1.90
   2  -4   3  112.45    2.98
  -3   4  -3   49.55    1.62
   3  -4   3   54.47    1.82
   3  -4   3   51.47    2.03
  -4   4  -3   31.79    1.45
   4  -4   3   31.83    1.50
   4  -4   3   31.26    1.74
  -5   4  -3   70.53    2.41
   5  -4   3   76.76    2.50
   5  -4   3   74.27    2.74
  -6   4  -3   32.40    1.78
   6  -4   3   32.80    1.93
   6  -4   3   35.63    1.84
  -7   4  -3    3.81    0.93
   7  -4   3    4.79    0.97
   7  -4   3    5.03    1.08
  -8   4  -3    4.85    1.16
   8  -4   3    6.95    1.33
   8  -4   3    7.01    1.21
  -9   4  -3    8.20    1.44
   9  -4   3    5.94    1.42
  -9  -3   3    2.71    1.14
   8   3  -3   14.01    1.49
  -8  -3   3   17.17    1.84
   7   3  -3    8.34    1.21
   7   3  -3    9.46    1.19
  -7  -3   3   10.59    1.34
   6   3  -3    0.29    0.55
   6   3  -3    0.41    0.53
  -6  -3   3    0.09    0.55
   5   3  -3    1.59    0.62
   5   3  -3    2.34    0.66
  -5  -3   3    2.11    0.47
  -5  -3   3    1.89    0.69
   4   3  -3    1.79    0.51
   4   3  -3    1.54    0.51
  -4  -3   3    2.07    0.38
  -4  -3   3    2.36    0.59
   3   3  -3   83.80    2.13
   3   3  -3   83.47    2.18
  -3  -3   3   80.65    1.56
  -3  -3   3   82.47    2.28
   2   3  -3   78.81    1.96
  -2  -3   3   75.04    1.94
  -2  -3   3   76.86    2.02
  -2  -3   3   76.80    1.29
   1   3  -3   24.43    0.99
   1   3  -3   24.66    0.58
  -1  -3   3   24.61    1.08
  -1  -3   3   24.86    1.02
   0   3  -3    3.02    0.43
   0   3  -3    2.68    0.27
   0  -3   3    3.00    0.39
   0  -3   3    2.68    0.54
  -1   3  -3  727.50    9.71
  -1   3  -3  753.41   10.20
   1  -3   3  738.78    9.96
   1  -3   3  738.39   11.12
  -2   3  -3  970.86   13.00
  -2   3  -3 1000.00   13.33
   2  -3   3  978.16   14.36
   2  -3   3  975.92   12.78
  -3   3  -3   84.74    2.13
   3  -3   3   85.60    2.49
   3  -3   3   85.40    2.18
   3  -3   3   84.21    1.41
  -4   3  -3   74.92    2.18
   4  -3   3   75.81    2.20
   4  -3   3   70.70    2.43
  -5   3  -3   81.24    2.51
   5  -3   3   84.67    2.50
   5  -3   3   82.21    2.79
  -6   3  -3   21.89    1.44
   6  -3   3   19.78    1.36
   6  -3   3   22.51    1.70
  -7   3  -3   66.50    2.64
   7  -3   3   67.74    2.91
   7  -3   3   68.91    2.52
  -8   3  -3    1.07    0.77
   8  -3   3    1.13    0.88
  -9   3  -3    7.40    1.31
   9  -3   3    8.33    1.57
   8   2  -3   29.11    1.81
  -8  -2   3   23.34    2.06
   7   2  -3    5.22    1.00
   7   2  -3    3.83    0.89
  -7  -2   3    3.80    0.75
  -7  -2   3    3.92    0.93
   6   2  -3    0.24    0.49
   6   2  -3   -0.18    0.51
  -6  -2   3    0.32    0.42
  -6  -2   3    0.19    0.51
   5   2  -3   11.66    1.07
   5   2  -3   15.04    1.17
  -5  -2   3   11.86    0.93
  -5  -2   3   11.60    1.15
   4   2  -3    8.43    0.89
   4   2  -3    7.15    0.74
  -4  -2   3    5.46    0.76
  -4  -2   3    6.66    0.63
   3   2  -3    1.03    0.35
   3   2  -3    0.01    0.31
  -3  -2   3    0.75    0.39
  -3  -2   3    0.53    0.25
   2   2  -3   46.62    1.40
  -2  -2   3   45.58    1.26
  -2  -2   3   44.29    1.08
  -2  -2   3   40.62    1.37
   1   2  -3   21.56    0.63
   1   2  -3   18.73    0.82
  -1  -2   3   21.46    0.90
  -1  -2   3   19.43    0.89
   0   2  -3   79.74    1.69
   0   2  -3   80.50    1.43
   0  -2   3   78.77    1.68
   0  -2   3   76.49    1.94
  -1   2  -3  865.23   11.40
  -1   2  -3  852.20   11.15
   1  -2   3  863.87   11.42
   1  -2   3  849.57   12.30
  -2   2  -3  140.83    2.61
  -2   2  -3  146.72    2.60
   2  -2   3  135.32    2.99
   2  -2   3  141.93    2.32
  -3   2  -3  238.34    4.13
   3  -2   3  238.99    4.07
   3  -2   3  238.35    3.60
   3  -2   3  240.19    4.61
  -4   2  -3  103.32    1.99
  -4   2  -3  109.19    2.62
   4  -2   3  105.10    2.89
   4  -2   3  105.17    2.50
  -5   2  -3   16.17    1.28
  -5   2  -3   13.19    0.75
   5  -2   3   14.34    1.14
   5  -2   3   16.21    1.45
  -6   2  -3    5.67    0.91
   6  -2   3    5.14    0.83
   6  -2   3    4.92    1.03
  -7   2  -3   21.71    1.56
   7  -2   3   20.50    1.43
   7  -2   3   23.05    1.74
  -8   2  -3    0.63    0.69
   8  -2   3    2.33    0.94
  -9   2  -3    0.80    0.83
   9  -2   3   -0.28    0.79
   9   1  -3    2.41    0.97
   8   1  -3    7.34    1.17
  -8  -1   3    6.48    1.17
  -8  -1   3    5.07    0.92
   7   1  -3   11.18    1.24
   7   1  -3   10.98    1.22
  -7  -1   3   11.42    1.15
   6   1  -3    4.97    0.88
   6   1  -3    5.19    0.86
  -6  -1   3    5.61    0.83
  -6  -1   3    4.22    0.85
   5   1  -3   12.37    1.01
   5   1  -3   10.23    1.03
  -5  -1   3   13.24    1.20
  -5  -1   3   13.58    1.06
   4   1  -3   15.47    0.93
   4   1  -3   16.05    1.04
  -4  -1   3   16.08    0.91
  -4  -1   3   16.25    1.07
   3   1  -3   38.85    1.38
   3   1  -3   39.92    1.17
  -3  -1   3   38.71    1.24
  -3  -1   3   39.26    1.42
   2   1  -3  103.65    2.22
   2   1  -3  103.87    2.10
   2   1  -3  108.65    1.92
  -2  -1   3  105.60    2.28
   1   1  -3  389.98    5.61
   1   1  -3  384.95    5.31
  -1  -1   3  379.24    5.71
  -1  -1   3  378.41    5.55
   0   1  -3  248.73    3.63
   0   1  -3  257.07    3.78
   0  -1   3  248.60    3.92
   0  -1   3  252.35    4.02
  -1   1  -3   98.55    1.87
  -1   1  -3   99.48    1.78
   1  -1   3  100.38    2.12
   1  -1   3   99.36    1.91
  -2   1  -3   65.56    1.58
  -2   1  -3   69.25    1.41
   2  -1   3   68.22    1.50
   2  -1   3   68.39    1.84
  -3   1  -3   24.29    0.90
  -3   1  -3   27.21    1.08
   3  -1   3   25.36    0.93
   3  -1   3   22.80    1.21
  -4   1  -3    2.97    0.55
  -4   1  -3    1.78    0.40
   4  -1   3    1.79    0.59
   4  -1   3    1.51    0.41
  -5   1  -3   12.18    1.12
  -5   1  -3   11.89    0.91
   5  -1   3   13.12    0.91
   5  -1   3   12.27    1.32
  -6   1  -3   12.44    1.24
   6  -1   3    9.89    0.99
   6  -1   3    8.21    1.31
  -7   1  -3   -0.25    0.53
   7  -1   3   -1.42    0.50
  -8   1  -3    6.22    1.10
   8  -1   3    7.91    1.36
  -9   1  -3    9.44    1.41
   9  -1   3   13.91    1.81
   9   0  -3    2.96    1.03
  -9   0   3    4.14    0.97
   8   0  -3    1.75    0.81
  -8   0   3    3.29    0.86
   7   0  -3   23.05    1.61
  -7   0   3   24.11    1.48
  -7   0   3   25.83    1.61
   6   0  -3    6.24    0.93
   6   0  -3    5.61    0.82
  -6   0   3    4.14    0.80
  -6   0   3    7.39    0.99
   5   0  -3  149.34    3.18
   5   0  -3  152.01    3.54
  -5   0   3  151.44    3.42
  -5   0   3  148.75    3.42
   4   0  -3   42.95    1.37
   4   0  -3   42.54    1.61
  -4   0   3   43.90    1.57
  -4   0   3   43.62    1.56
   3   0  -3  122.66    2.64
   3   0  -3  120.06    2.20
  -3   0   3  124.76    2.65
  -3   0   3  118.70    2.59
   2   0  -3  690.73    9.57
   2   0  -3  672.37    9.50
   2   0  -3  693.55    9.21
  -2   0   3  685.63    9.69
   1   0  -3  260.13    4.01
   1   0  -3  261.36    3.96
  -1   0   3  260.53    4.17
  -1   0   3  260.60    3.62
   0   0  -3   99.83    1.81
   0   0  -3   98.64    1.74
   0   0   3   96.25    1.75
   0   0   3   98.24    2.00
  -1   0  -3  110.30    1.72
  -1   0  -3  108.28    2.02
   1   0   3  106.60    2.13
   1   0   3  106.49    2.14
  -2   0  -3    0.28    0.25
  -2   0  -3   -0.05    0.14
  -2   0  -3    0.23    0.26
   2   0   3   -0.03    0.26
  -3   0  -3  168.38    3.16
  -3   0  -3  166.06    3.16
   3   0   3  169.32    2.72
   3   0   3  174.78    3.59
  -4   0  -3    0.22    0.37
  -4   0  -3   -0.04    0.31
   4   0   3   -0.31    0.43
   4   0   3    0.06    0.26
  -5   0  -3   74.63    2.29
  -5   0  -3   80.92    2.25
   5   0   3   82.70    2.74
   5   0   3   79.26    2.01
  -6   0  -3    0.63    0.59
  -6   0  -3    0.04    0.45
   6   0   3    0.60    0.69
  -7   0  -3   12.11    1.31
   7   0   3   10.47    1.42
  -8   0  -3   17.08    1.66
   8   0   3   15.22    1.83
  -9   0  -3    1.56    0.89
   9   0   3    2.83    1.20
   9  -1  -3    5.00    1.19
  -9   1   3    3.85    1.03
   8  -1  -3    2.35    0.88
  -8   1   3    0.51    0.64
   7  -1  -3   -0.27    0.57
  -7   1   3    0.03    0.51
  -7   1   3   -0.12    0.53
   6  -1  -3   28.40    1.66
   6  -1  -3   27.82    1.44
  -6   1   3   24.52    1.49
  -6   1   3   30.06    1.55
   5  -1  -3  194.04    3.72
   5  -1  -3  196.12    4.19
  -5   1   3  192.50    3.95
  -5   1   3  186.62    4.11
   4  -1  -3   16.45    1.09
   4  -1  -3   17.90    0.92
  -4   1   3   20.94    1.09
  -4   1   3   17.26    1.09
   3  -1  -3  272.58    4.67
   3  -1  -3  266.42    4.03
  -3   1   3  261.00    4.70
  -3   1   3  267.67    4.53
   2  -1  -3   90.85    1.40
   2  -1  -3   91.74    2.19
   2  -1  -3   90.39    2.05
  -2   1   3   92.83    2.06
   1  -1  -3  329.40    4.99
   1  -1  -3  335.09    4.93
  -1   1   3  329.52    5.15
   0  -1  -3   77.93    1.42
   0  -1  -3   70.23    1.56
   0   1   3   74.42    1.74
   0   1   3   74.21    1.43
  -1  -1  -3  148.65    2.85
  -1  -1  -3  150.54    2.13
  -1  -1  -3  152.14    2.64
   1   1   3  149.26    2.75
  -2  -1  -3   72.43    1.70
  -2  -1  -3   71.56    1.85
   2   1   3   71.89    1.89
  -3  -1  -3  149.06    2.96
  -3  -1  -3  155.34    3.19
   3   1   3  155.31    3.41
   3   1   3  156.47    2.27
  -4  -1  -3   76.04    2.08
  -4  -1  -3   75.64    2.16
   4   1   3   73.96    1.55
   4   1   3   78.16    2.46
  -5  -1  -3   19.09    1.23
  -5  -1  -3   21.31    1.22
   5   1   3   22.08    1.52
   5   1   3   22.26    0.96
  -6  -1  -3   22.53    1.46
  -6  -1  -3   19.18    1.36
   6   1   3   19.33    1.68
  -7  -1  -3   33.50    1.76
  -7  -1  -3   34.64    1.84
   7   1   3   25.63    1.92
  -8  -1  -3   32.68    1.88
   8   1   3   31.09    2.25
  -9  -1  -3    0.81    0.82
   9   1   3    0.74    1.09
   9  -2  -3    2.13    0.99
  -9   2   3    2.57    0.96
   8  -2  -3   19.47    1.85
  -8   2   3   11.99    1.46
   7  -2  -3    5.00    0.98
  -7   2   3    3.30    0.88
   6  -2  -3   51.16    2.19
  -6   2   3   53.81    1.96
  -6   2   3   53.86    2.28
   5  -2  -3  116.47    2.65
   5  -2  -3  115.17    3.14
  -5   2   3  118.70    2.85
  -5   2   3  113.32    3.16
   4  -2  -3    0.14    0.35
   4  -2  -3    0.91    0.47
  -4   2   3    1.64    0.55
  -4   2   3    0.53    0.40
   3  -2  -3   83.12    1.70
  -3   2   3   84.09    2.34
  -3   2   3   83.91    2.05
   2  -2  -3   37.46    0.89
   2  -2  -3   37.78    1.41
   2  -2  -3   38.49    1.29
  -2   2   3   35.87    1.24
   1  -2  -3    4.91    0.49
   1  -2  -3    5.37    0.56
  -1   2   3    5.14    0.55
  -1   2   3    5.33    0.33
   0  -2  -3    1.16    0.26
   0  -2  -3    2.16    0.40
   0  -2  -3    1.81    0.34
   0   2   3    1.56    0.37
   0   2   3    2.38    0.31
  -1  -2  -3    1.28    0.31
  -1  -2  -3    1.89    0.21
  -1  -2  -3    1.72    0.41
   1   2   3    1.80    0.37
  -2  -2  -3   44.93    1.54
  -2  -2  -3   43.49    1.29
   2   2   3   45.35    1.52
  -3  -2  -3    3.91    0.61
  -3  -2  -3    2.66    0.47
   3   2   3    2.26    0.53
  -4  -2  -3  130.37    2.84
  -4  -2  -3  128.99    3.15
   4   2   3  126.55    2.05
   4   2   3  128.03    3.34
  -5  -2  -3  120.85    2.94
  -5  -2  -3  118.17    3.18
   5   2   3  120.21    3.47
  -6  -2  -3   21.50    1.48
  -6  -2  -3   20.82    1.32
   6   2   3   22.22    1.86
  -7  -2  -3   52.43    2.33
  -7  -2  -3   51.38    2.18
   7   2   3   50.97    2.58
  -8  -2  -3    4.43    0.97
   8   2   3    3.89    1.16
  -9  -2  -3   11.30    1.47
   9   2   3   10.29    1.72
   9  -3  -3    2.61    1.05
  -9   3   3    2.18    0.96
   8  -3  -3    0.13    0.79
  -8   3   3    0.77    0.74
   7  -3  -3   16.75    1.66
  -7   3   3   15.86    1.62
   6  -3  -3   63.42    2.49
  -6   3   3   66.40    2.62
   5  -3  -3   29.34    1.35
   5  -3  -3   31.07    1.66
  -5   3   3   30.32    1.38
  -5   3   3   28.14    1.62
   4  -3  -3   99.31    2.75
   4  -3  -3   96.12    2.21
  -4   3   3   97.62    2.80
  -4   3   3   97.30    2.35
   3  -3  -3   43.95    1.69
   3  -3  -3   46.37    1.33
  -3   3   3   46.94    1.48
  -3   3   3   42.14    1.70
   2  -3  -3    5.79    0.66
   2  -3  -3    5.23    0.70
   2  -3  -3    5.71    0.50
  -2   3   3    4.74    0.59
   1  -3  -3   12.07    0.61
   1  -3  -3   11.68    0.77
   1  -3  -3   11.74    0.73
  -1   3   3   11.03    0.77
   0  -3  -3   12.30    0.74
   0  -3  -3   13.19    0.65
   0  -3  -3   12.92    0.81
   0   3   3   12.47    0.67
  -1  -3  -3  170.01    3.08
  -1  -3  -3  176.48    3.52
  -1  -3  -3  175.91    2.69
   1   3   3  181.23    3.34
  -2  -3  -3  106.24    2.68
  -2  -3  -3  104.72    2.28
   2   3   3  107.46    2.58
  -3  -3  -3   54.66    1.60
  -3  -3  -3   51.97    1.87
   3   3   3   52.76    1.90
  -4  -3  -3   38.86    1.73
  -4  -3  -3   39.23    1.50
   4   3   3   39.62    1.85
  -5  -3  -3   47.59    2.04
  -5  -3  -3   48.06    1.80
   5   3   3   48.79    2.28
  -6  -3  -3   13.62    1.43
  -6  -3  -3   12.80    1.20
   6   3   3   12.31    1.52
  -7  -3  -3   13.75    1.55
  -7  -3  -3   17.46    1.45
   7   3   3   16.41    1.74
  -8  -3  -3   13.47    1.63
   8   3   3   15.56    1.91
  -9  -3  -3    4.72    1.07
   9   3   3    5.32    1.43
   9  -4  -3   11.13    1.68
  -9   4   3   11.85    1.66
   8  -4  -3    4.44    1.17
  -8   4   3    4.98    1.13
   7  -4  -3    6.60    1.15
  -7   4   3    5.39    1.09
   6  -4  -3   33.35    1.91
  -6   4   3   36.88    2.00
   5  -4  -3    1.00    0.51
   5  -4  -3    0.40    0.59
  -5   4   3    0.07    0.53
  -5   4   3    0.10    0.43
   4  -4  -3   79.55    2.60
   4  -4  -3   82.91    2.18
  -4   4   3   80.18    2.13
  -4   4   3   79.91    2.65
   3  -4  -3    2.69    0.63
   3  -4  -3    3.96    0.58
  -3   4   3    3.89    0.60
  -3   4   3    2.90    0.65
   2  -4  -3   -0.30    0.30
   2  -4  -3    0.29    0.33
   2  -4  -3    0.22    0.41
  -2   4   3    0.29    0.32
   1  -4  -3    6.01    0.70
   1  -4  -3    6.47    0.61
   1  -4  -3    7.30    0.77
   1  -4  -3    6.57    0.68
  -1   4   3    6.28    0.72
   0  -4  -3  175.23    3.55
   0  -4  -3  176.10    3.19
   0  -4  -3  175.20    3.29
   0   4   3  177.15    3.32
  -1  -4  -3  553.43    7.98
  -1  -4  -3  553.85    8.69
  -1  -4  -3  559.21    7.63
   1   4   3  558.55    8.56
  -2  -4  -3  124.62    3.08
  -2  -4  -3  125.77    2.59
   2   4   3  124.05    1.95
   2   4   3  127.89    3.03
  -3  -4  -3   87.38    2.66
  -3  -4  -3   90.14    2.20
   3   4   3   89.29    1.41
   3   4   3   91.41    2.68
  -4  -4  -3   31.24    1.67
  -4  -4  -3   35.59    1.41
   4   4   3   31.05    1.77
  -5  -4  -3    3.27    0.83
  -5  -4  -3    3.56    0.69
   5   4   3    3.29    0.88
  -6  -4  -3    0.14    0.47
  -6  -4  -3    0.58    0.63
   6   4   3    1.03    0.75
  -7  -4  -3   -0.06    0.55
  -7  -4  -3    0.74    0.75
   7   4   3    0.35    0.87
  -8  -4  -3    4.78    1.00
  -8  -4  -3    3.64    1.12
   8   4   3    3.86    1.24
   9  -5  -3    4.47    1.29
  -9   5   3    4.89    1.29
   8  -5  -3    2.80    1.01
  -8   5   3    3.17    1.07
   7  -5  -3    8.60    1.38
  -7   5   3    7.93    1.29
   6  -5  -3    8.24    1.22
  -6   5   3    6.19    1.11
   5  -5  -3    5.80    0.98
  -5   5   3    5.24    0.98
   4  -5  -3    9.16    0.95
   4  -5  -3    8.54    1.06
  -4   5   3   10.75    1.22
  -4   5   3    9.64    0.90
   3  -5  -3   40.04    1.75
   3  -5  -3   39.21    1.54
  -3   5   3   41.00    1.51
  -3   5   3   40.42    1.81
   2  -5  -3  172.59    3.51
   2  -5  -3  170.56    3.80
   2  -5  -3  168.90    3.70
  -2   5   3  174.24    3.52
   1  -5  -3    0.21    0.35
   1  -5  -3    0.21    0.36
   1  -5  -3    0.33    0.38
   1  -5  -3   -0.27    0.27
   0  -5  -3  278.59    4.95
   0  -5  -3  267.36    4.62
   0  -5  -3  273.13    5.06
   0  -5  -3  273.01    4.71
  -1  -5  -3  548.38    8.78
  -1  -5  -3  545.06    7.76
  -1  -5  -3  550.29    8.04
   1   5   3  542.52    8.70
  -2  -5  -3   30.11    1.19
  -2  -5  -3   31.92    1.56
   2   5   3   28.73    0.86
   2   5   3   26.54    1.47
  -3  -5  -3    2.77    0.70
  -3  -5  -3    1.61    0.48
   3   5   3    2.62    0.73
  -4  -5  -3   -0.13    0.38
  -4  -5  -3    1.45    0.61
   4   5   3    0.10    0.57
  -5  -5  -3    3.47    0.88
  -5  -5  -3    3.70    0.70
   5   5   3    3.06    0.91
  -6  -5  -3   13.76    1.21
  -6  -5  -3   11.33    1.47
   6   5   3   13.72    1.64
  -7  -5  -3    0.31    0.76
   7   5   3   -0.47    0.79
  -8  -5  -3    1.25    0.95
   8   5   3    2.76    1.10
   8  -6  -3   -0.53    0.70
  -8   6   3   -0.13    0.84
   7  -6  -3    3.66    1.08
  -7   6   3    2.37    0.94
   6  -6  -3   33.17    2.04
  -6   6   3   34.88    2.08
   5  -6  -3    0.30    0.58
  -5   6   3    0.93    0.64
   4  -6  -3   24.05    1.46
   4  -6  -3   23.58    1.57
  -4   6   3   27.49    1.30
  -4   6   3   25.61    1.60
   3  -6  -3   84.70    2.76
   3  -6  -3   86.35    2.53
  -3   6   3   84.64    2.33
  -3   6   3   91.76    2.79
   2  -6  -3   39.57    1.68
   2  -6  -3   37.17    1.70
   2  -6  -3   39.83    1.76
  -2   6   3   39.91    1.60
   1  -6  -3   65.83    2.11
   1  -6  -3   70.13    2.18
   1  -6  -3   71.18    2.23
   1  -6  -3   69.74    2.16
   0  -6  -3  166.40    3.49
   0  -6  -3  172.48    3.83
   0  -6  -3  171.16    3.52
   0  -6  -3  169.79    3.80
  -1  -6  -3  147.82    3.60
  -1  -6  -3  151.25    3.13
   1   6   3  144.71    2.85
   1   6   3  146.46    3.55
  -2  -6  -3   13.33    1.28
  -2  -6  -3   15.49    0.97
   2   6   3   12.74    1.21
   2   6   3   11.16    0.67
  -3  -6  -3    0.87    0.58
  -3  -6  -3    0.42    0.42
   3   6   3    0.21    0.57
  -4  -6  -3    3.10    0.86
  -4  -6  -3    2.50    0.59
   4   6   3    2.69    0.84
  -5  -6  -3   35.65    2.07
  -5  -6  -3   36.42    1.59
   5   6   3   36.46    2.13
  -6  -6  -3    0.76    0.81
   6   6   3    0.51    0.77
  -7  -6  -3    9.51    1.58
   7   6   3    8.25    1.47
  -8  -6  -3   -0.30    0.84
   8   6   3    0.33    1.05
   8  -7  -3    0.45    0.83
  -8   7   3   -0.10    0.82
   7  -7  -3    6.86    1.33
  -7   7   3    6.88    1.31
   6  -7  -3   10.81    1.45
  -6   7   3   10.45    1.43
   5  -7  -3   65.14    2.79
  -5   7   3   67.67    2.77
   4  -7  -3   69.05    2.44
   4  -7  -3   66.96    2.66
  -4   7   3   71.08    2.63
   3  -7  -3  132.21    3.38
   3  -7  -3  125.21    3.60
  -3   7   3  128.86    3.54
  -3   7   3  125.57    3.05
   2  -7  -3    1.12    0.58
   2  -7  -3    0.33    0.55
   2  -7  -3    0.61    0.54
  -2   7   3    0.58    0.51
   1  -7  -3    3.60    0.74
   1  -7  -3    2.73    0.69
   1  -7  -3    2.52    0.68
   1  -7  -3    1.07    0.58
   0  -7  -3    2.23    0.59
   0  -7  -3    3.25    0.76
   0  -7  -3    2.42    0.72
   0  -7  -3    2.20    0.60
  -1  -7  -3   19.23    1.35
  -1  -7  -3   15.10    1.06
   1   7   3   18.37    1.53
   1   7   3   14.41    0.93
  -2  -7  -3    0.66    0.47
  -2  -7  -3    0.43    0.57
   2   7   3    0.53    0.63
   2   7   3    0.68    0.37
  -3  -7  -3    0.71    0.64
  -3  -7  -3    1.66    0.56
   3   7   3    2.01    0.82
  -4  -7  -3    2.03    0.82
   4   7   3    2.28    0.85
  -5  -7  -3    1.93    0.82
   5   7   3    3.36    1.03
  -6  -7  -3    9.37    1.51
   6   7   3    7.82    1.40
  -7  -7  -3   14.25    1.87
   7   7   3   14.95    1.98
   7  -8  -3    3.34    1.11
  -7   8   3    4.43    1.19
   5  -8  -3    0.59    0.66
  -5   8   3    0.80    0.69
   4  -8  -3   61.12    2.67
  -4   8   3   59.13    2.52
   3  -8  -3   36.24    1.99
   3  -8  -3   39.99    1.92
  -3   8   3   37.51    1.90
   2  -8  -3    1.11    0.62
   2  -8  -3    0.81    0.57
   2  -8  -3    1.79    0.65
  -2   8   3    0.58    0.52
  -2   8   3    0.63    0.55
   1  -8  -3    0.71    0.58
   1  -8  -3    1.32    0.61
   1  -8  -3    1.11    0.64
   1  -8  -3    1.01    0.60
   0  -8  -3    0.40    0.59
   0  -8  -3    0.59    0.59
   0  -8  -3    0.30    0.54
   0  -8  -3    0.11    0.49
  -1  -8  -3    0.28    0.44
  -1  -8  -3   -0.79    0.49
   1   8   3   -0.33    0.38
   1   8   3   -0.61    0.57
  -2  -8  -3  123.66    2.96
  -2  -8  -3  109.81    3.49
   2   8   3  120.42    3.72
  -3  -8  -3   17.46    1.68
   3   8   3   17.55    1.80
  -4  -8  -3   35.30    2.13
   4   8   3   42.75    2.47
  -5  -8  -3    5.45    1.25
   5   8   3    7.30    1.39
  -6  -8  -3   16.41    1.92
   6   8   3   19.32    2.15
  -7  -8  -3    9.72    1.62
   7   8   3    9.93    1.79
   7  -9  -3   18.98    2.08
  -7   9   3   23.11    2.26
   6  -9  -3   21.25    2.13
  -6   9   3   14.40    1.75
   5  -9  -3    2.50    0.96
  -5   9   3    1.48    0.81
   4  -9  -3   46.10    2.43
  -4   9   3   44.28    2.22
   3  -9  -3    7.09    1.11
   3  -9  -3    8.18    1.24
  -3   9   3    7.64    1.12
   2  -9  -3   30.63    1.66
   2  -9  -3   37.41    1.99
   2  -9  -3   31.93    1.91
  -2   9   3   36.35    1.76
  -2   9   3   33.48    1.80
   1  -9  -3    4.54    0.97
   1  -9  -3    5.51    0.93
   1  -9  -3    3.74    0.83
   1  -9  -3    4.07    0.89
   0  -9  -3    0.33    0.66
   0  -9  -3    0.21    0.53
   0  -9  -3    0.18    0.56
   0   9   3    0.47    0.49
  -1  -9  -3    1.43    0.72
   1   9   3    0.84    0.77
   1   9   3    0.14    0.44
  -2  -9  -3    2.43    0.84
   2   9   3    2.10    0.88
  -3  -9  -3   14.47    1.60
   3   9   3   16.42    1.82
  -4  -9  -3   22.01    2.06
   4   9   3   21.75    2.14
  -5  -9  -3   20.63    2.11
   5   9   3   19.80    2.11
  -6  -9  -3    8.51    1.54
   6   9   3    8.26    1.64
   6 -10  -3    4.59    1.18
  -6  10   3    3.76    1.15
   5 -10  -3    1.04    0.89
  -5  10   3    1.05    0.81
   4 -10  -3    2.70    0.94
  -4  10   3    3.20    0.94
   3 -10  -3    0.97    0.76
  -3  10   3   -0.38    0.48
   2 -10  -3   -0.05    0.68
   2 -10  -3   -0.60    0.51
  -2  10   3    0.03    0.56
   1 -10  -3   -0.44    0.58
   1 -10  -3    0.65    0.65
   1 -10  -3   -0.01    0.57
   1 -10  -3    1.20    0.79
  -1  10   3    0.55    0.59
   0 -10  -3   46.18    2.47
   0 -10  -3   46.92    2.27
   0  10   3   43.92    1.97
  -1 -10  -3    1.55    0.73
   1  10   3    0.68    0.82
  -2 -10  -3   15.67    1.67
   2  10   3   13.31    1.75
  -3 -10  -3   61.17    2.89
   3  10   3   60.70    3.05
  -4 -10  -3   -0.29    0.68
   4  10   3    1.12    0.96
  -5 -10  -3    0.99    0.91
   5  10   3    1.34    1.14
   5 -11  -3    0.17    0.78
  -5  11   3   -0.17    0.76
   4 -11  -3    0.36    0.85
  -4  11   3    0.84    0.73
   3 -11  -3   -0.26    0.67
  -3  11   3    0.23    0.66
   2 -11  -3    0.19    0.69
   2 -11  -3    0.68    0.81
  -2  11   3    1.30    0.69
   1 -11  -3   52.22    2.69
  -1  11   3   56.96    2.47
   0 -11  -3   61.64    2.94
   0 -11  -3   55.41    2.59
  -1 -11  -3    6.25    1.21
   1  11   3    3.96    1.19
  -2 -11  -3   47.59    2.63
   2  11   3   48.75    2.93
  -3 -11  -3   12.21    1.70
   3  11   3   11.85    1.82
  -4 -11  -3   -0.50    0.79
   4  11   3    1.69    1.21
   4 -12  -3   -0.65    0.79
   3 -12  -3    0.55    0.91
  -2  12   3   10.27    1.43
   1 -12  -3   41.40    2.57
  -1  12   3   43.71    2.28
   0 -12  -3   23.01    2.05
   0  12   3   19.47    2.08
  -1 -12  -3   15.58    1.81
   1  12   3   14.23    1.87
  -2 -12  -3   11.54    1.66
   2  12   3    6.97    1.56
  -3 -12  -3    0.71    0.95
   3  12   3    0.25    1.04
   0  13   3   10.73    1.78
   0  13  -4    8.52    1.49
   0 -13   4    7.42    1.56
  -1  13  -4   56.42    2.97
   1 -13   4   52.85    3.21
   3  12  -4    0.90    0.89
  -3 -12   4    2.14    1.15
  -3 -12   4    1.69    1.01
   2  12  -4   16.27    1.79
  -2 -12   4   16.27    1.81
  -2 -12   4   18.00    2.13
   1  12  -4   23.27    2.08
  -1 -12   4   17.34    2.07
   0  12  -4   32.55    2.20
   0 -12   4   31.19    2.70
  -1  12  -4   20.08    1.99
   1 -12   4   20.68    2.27
  -2  12  -4   13.61    1.71
   2 -12   4   12.18    1.85
  -3  12  -4    9.26    1.54
   3 -12   4    4.78    1.42
  -4  12  -4    7.66    1.44
   4 -12   4   10.64    1.76
   4  11  -4    6.22    1.22
   4  11  -4    6.37    1.43
  -4 -11   4    7.30    1.38
   3  11  -4    0.29    0.72
  -3 -11   4    0.92    0.84
  -3 -11   4    0.15    0.90
   2  11  -4   35.09    2.05
  -2 -11   4   40.55    2.29
  -2 -11   4   35.32    2.53
   1  11  -4   23.73    1.97
  -1 -11   4   23.97    1.76
  -1 -11   4   20.63    2.13
   0  11  -4    0.47    0.74
   0 -11   4   -1.25    0.71
  -1  11  -4    9.66    1.41
   1 -11   4   10.41    1.64
  -2  11  -4    0.71    0.77
   2 -11   4    0.13    0.83
  -3  11  -4    8.03    1.37
   3 -11   4    6.43    1.44
  -4  11  -4   15.08    1.79
   4 -11   4   15.64    2.02
  -5  11  -4    4.20    1.21
   5 -11   4    5.57    1.47
   5  10  -4    7.91    1.52
   5  10  -4   11.84    1.56
  -5 -10   4    9.53    1.53
   4  10  -4    3.91    1.02
   4  10  -4    4.00    1.17
  -4 -10   4    3.11    0.99
   3  10  -4    1.65    0.75
  -3 -10   4    0.41    0.79
  -3 -10   4   -0.02    0.64
   2  10  -4    8.50    1.19
  -2 -10   4    6.81    1.18
  -2 -10   4    6.75    1.33
   1  10  -4   11.58    1.34
  -1 -10   4   17.23    1.89
  -1 -10   4   14.53    1.49
   0  10  -4   14.82    1.56
   0 -10   4   16.36    1.44
   0 -10   4   17.47    1.95
  -1  10  -4   -0.70    0.54
   1 -10   4    0.66    0.84
  -2  10  -4    0.59    0.66
   2 -10   4    0.72    0.78
  -3  10  -4   11.54    1.47
   3 -10   4   10.38    1.58
  -4  10  -4   16.93    1.80
   4 -10   4   19.74    2.12
  -5  10  -4   27.67    2.01
   5 -10   4   27.32    2.56
  -6  10  -4    1.13    0.90
  -6  10  -4    1.10    0.88
   6 -10   4    0.84    1.07
   6   9  -4   11.66    1.66
  -6  -9   4    7.56    1.37
   5   9  -4   21.97    2.13
   5   9  -4   17.39    1.69
  -5  -9   4   21.17    2.02
   4   9  -4    7.84    1.33
   4   9  -4    5.83    1.08
  -4  -9   4    3.86    0.99
   3   9  -4    0.24    0.60
  -3  -9   4    0.98    0.79
  -3  -9   4   -0.19    0.62
   2   9  -4    0.36    0.59
  -2  -9   4    0.38    0.64
  -2  -9   4    0.30    0.70
   1   9  -4   13.15    1.35
  -1  -9   4   12.64    1.30
  -1  -9   4   11.10    1.51
   0   9  -4    5.86    0.97
   0  -9   4    5.15    0.88
   0  -9   4    7.64    1.30
  -1   9  -4   14.36    1.40
   1  -9   4   16.80    1.78
  -2   9  -4    4.39    0.94
   2  -9   4    5.40    1.19
  -3   9  -4   10.49    1.38
   3  -9   4   10.23    1.56
  -4   9  -4   96.84    2.97
  -4   9  -4   88.84    3.30
   4  -9   4  102.83    4.00
  -5   9  -4   65.40    2.62
  -5   9  -4   66.35    2.94
   5  -9   4   65.14    3.32
  -6   9  -4   50.71    2.51
  -6   9  -4   44.24    2.53
   6  -9   4   51.88    3.07
  -7   9  -4   10.05    1.53
  -7   9  -4    9.79    1.56
   7  -9   4    6.62    1.55
   7   8  -4    0.33    0.95
  -7  -8   4    3.21    1.09
   6   8  -4    8.08    1.37
   6   8  -4    9.21    1.32
  -6  -8   4    6.49    1.32
   5   8  -4   15.21    1.53
   5   8  -4   13.56    1.65
  -5  -8   4   12.92    1.57
   4   8  -4    2.28    0.74
   4   8  -4    1.61    0.81
  -4  -8   4    1.42    0.79
   3   8  -4   23.47    1.51
  -3  -8   4   24.19    1.73
  -3  -8   4   23.03    1.65
   2   8  -4    1.82    0.65
  -2  -8   4    0.92    0.73
  -2  -8   4    1.33    0.64
   1   8  -4   19.02    1.51
  -1  -8   4   19.22    1.30
  -1  -8   4   19.16    1.77
   0   8  -4    1.34    0.61
   0  -8   4    1.85    0.59
   0  -8   4    2.69    0.87
  -1   8  -4   28.93    1.64
   1  -8   4   27.84    1.31
   1  -8   4   26.80    1.90
  -2   8  -4   70.66    2.60
  -2   8  -4   74.33    2.04
   2  -8   4   76.46    3.18
  -3   8  -4   44.38    2.12
  -3   8  -4   43.66    1.74
   3  -8   4   44.97    2.53
  -4   8  -4   85.68    2.70
  -4   8  -4   83.14    3.00
   4  -8   4   80.29    3.40
  -5   8  -4   52.79    2.31
  -5   8  -4   56.23    2.54
   5  -8   4   52.56    2.87
  -6   8  -4    0.30    0.74
  -6   8  -4    0.89    0.77
   6  -8   4   -0.15    0.72
  -7   8  -4   30.14    2.07
  -7   8  -4   34.85    2.26
   7  -8   4   29.41    2.44
   7  -8   4   34.95    2.64
   7   7  -4    2.61    1.03
  -7  -7   4   -0.12    0.80
   6   7  -4    1.79    0.90
   6   7  -4    4.15    0.96
  -6  -7   4    1.29    0.86
   5   7  -4    6.71    1.18
   5   7  -4    7.50    1.13
  -5  -7   4    6.66    1.18
   4   7  -4   21.05    1.75
   4   7  -4   19.51    1.59
  -4  -7   4   17.53    1.61
   3   7  -4    7.70    1.02
  -3  -7   4    6.81    1.01
  -3  -7   4    4.86    0.95
   2   7  -4    1.05    0.58
  -2  -7   4    1.42    0.61
  -2  -7   4    1.29    0.68
   1   7  -4    0.03    0.47
  -1  -7   4    0.47    0.61
  -1  -7   4    0.17    0.46
   0   7  -4   17.16    1.20
   0  -7   4   16.17    1.09
   0  -7   4   16.74    1.59
  -1   7  -4   60.39    2.22
  -1   7  -4   58.38    1.53
   1  -7   4   60.95    1.80
   1  -7   4   64.33    2.75
  -2   7  -4   61.40    1.79
  -2   7  -4   62.44    2.30
   2  -7   4   62.01    2.72
  -3   7  -4   19.98    1.21
  -3   7  -4   16.63    1.48
   3  -7   4   20.14    1.89
  -4   7  -4   98.37    2.87
  -4   7  -4  102.43    3.21
   4  -7   4  107.43    3.73
  -5   7  -4   17.70    1.55
  -5   7  -4   19.43    1.74
   5  -7   4   17.43    1.82
  -6   7  -4    0.38    0.71
   6  -7   4    0.97    0.75
   6  -7   4    0.44    0.76
  -7   7  -4    0.44    0.78
   7  -7   4    0.66    0.71
   7  -7   4    1.05    0.93
  -8   7  -4    1.09    0.96
   8  -7   4    1.38    0.93
   8  -7   4    1.83    1.15
  -8  -6   4    1.34    0.92
   7   6  -4    1.69    0.86
   7   6  -4    1.87    0.92
  -7  -6   4    1.15    0.87
   6   6  -4   11.68    1.39
   6   6  -4   10.08    1.28
  -6  -6   4   10.76    1.44
   5   6  -4   -0.20    0.54
   5   6  -4    1.04    0.69
  -5  -6   4    0.07    0.57
   4   6  -4   39.68    1.95
   4   6  -4   39.83    1.89
  -4  -6   4   41.02    2.01
   3   6  -4   27.56    1.51
  -3  -6   4   30.09    1.62
  -3  -6   4   24.99    1.50
   2   6  -4   82.82    2.47
  -2  -6   4   81.35    2.51
  -2  -6   4   78.57    2.64
   1   6  -4   67.52    2.15
  -1  -6   4   66.89    2.54
  -1  -6   4   70.73    2.15
   0   6  -4  129.43    3.07
   0   6  -4  125.66    2.05
   0  -6   4  117.96    3.55
   0  -6   4  125.27    2.83
  -1   6  -4  232.54    3.68
  -1   6  -4  220.65    4.49
   1  -6   4  227.76    3.99
   1  -6   4  222.62    5.24
  -2   6  -4  122.45    2.59
  -2   6  -4  114.94    3.04
   2  -6   4  119.68    3.66
   2  -6   4  118.21    2.35
  -3   6  -4    8.72    0.92
  -3   6  -4    6.01    0.93
   3  -6   4    6.70    1.15
  -4   6  -4    8.73    1.07
  -4   6  -4    6.77    0.92
   4  -6   4    6.73    1.14
  -5   6  -4    8.55    1.12
   5  -6   4    7.56    1.12
   5  -6   4    5.66    1.12
  -6   6  -4    3.22    0.92
   6  -6   4    2.43    0.95
   6  -6   4    1.13    0.67
  -7   6  -4    5.22    1.12
   7  -6   4    4.37    1.20
   7  -6   4    4.60    1.02
  -8   6  -4    3.33    1.07
   8  -6   4    6.82    1.27
   8  -6   4    2.91    1.21
  -8  -5   4    1.53    0.98
   7   5  -4    4.42    0.97
   7   5  -4    3.88    1.03
  -7  -5   4    3.77    1.06
   6   5  -4   14.31    1.43
   6   5  -4   14.40    1.46
  -6  -5   4   16.88    1.66
   5   5  -4    3.85    0.84
   5   5  -4    4.02    0.81
  -5  -5   4    4.38    0.93
   4   5  -4    0.73    0.58
   4   5  -4    0.42    0.56
  -4  -5   4    0.39    0.50
   3   5  -4  128.97    3.21
  -3  -5   4  134.61    3.30
  -3  -5   4  133.07    3.37
   2   5  -4  208.29    4.14
  -2  -5   4  200.49    4.16
  -2  -5   4  203.83    4.35
   1   5  -4   61.35    1.91
  -1  -5   4   58.82    1.85
  -1  -5   4   58.62    2.18
   0   5  -4  197.88    2.94
   0   5  -4  191.65    3.84
   0  -5   4  196.50    3.67
   0  -5   4  197.90    4.48
  -1   5  -4  216.06    4.17
  -1   5  -4  218.92    3.51
   1  -5   4  214.02    3.72
   1  -5   4  221.73    4.96
  -2   5  -4   60.10    1.93
  -2   5  -4   55.42    1.59
   2  -5   4   58.16    2.33
   2  -5   4   53.81    1.36
  -3   5  -4   -0.26    0.37
  -3   5  -4   -0.48    0.36
   3  -5   4   -0.29    0.50
  -4   5  -4   13.68    1.17
  -4   5  -4   15.06    1.32
   4  -5   4   14.60    1.45
   4  -5   4   15.00    1.34
  -5   5  -4   22.66    1.48
   5  -5   4   23.28    1.72
   5  -5   4   20.91    1.45
  -6   5  -4    0.83    0.63
   6  -5   4    2.09    0.77
   6  -5   4    2.84    0.91
  -7   5  -4   24.67    1.76
   7  -5   4   22.01    2.06
   7  -5   4   25.60    1.74
  -8   5  -4   22.80    2.10
   8  -5   4   24.33    2.27
   8   4  -4    0.99    0.77
  -8  -4   4    0.26    0.83
   7   4  -4   10.18    1.29
  -7  -4   4    9.48    1.39
   6   4  -4    2.03    0.69
   6   4  -4    2.38    0.76
  -6  -4   4    3.74    0.92
   5   4  -4    2.01    0.70
   5   4  -4    2.43    0.73
  -5  -4   4    0.73    0.65
   4   4  -4  119.07    3.02
   4   4  -4  117.20    3.09
  -4  -4   4  117.35    3.20
   3   4  -4  125.89    3.09
  -3  -4   4  135.13    3.07
  -3  -4   4  127.47    3.21
   2   4  -4   85.51    2.29
  -2  -4   4   85.55    1.33
  -2  -4   4   89.40    2.36
  -2  -4   4   86.76    2.35
   1   4  -4    3.98    0.30
   1   4  -4    3.62    0.55
  -1  -4   4    3.24    0.65
  -1  -4   4    4.14    0.59
   0   4  -4  135.48    2.22
   0   4  -4  137.98    2.88
   0  -4   4  138.20    2.77
   0  -4   4  135.96    3.35
  -1   4  -4    5.27    0.64
  -1   4  -4    5.12    0.50
   1  -4   4    5.60    0.82
   1  -4   4    5.31    0.53
  -2   4  -4   46.71    1.58
  -2   4  -4   48.14    1.44
   2  -4   4   46.89    1.19
   2  -4   4   48.74    1.96
  -3   4  -4    3.77    0.59
  -3   4  -4    4.13    0.64
   3  -4   4    6.01    0.44
   3  -4   4    3.90    0.81
  -4   4  -4   28.45    1.40
   4  -4   4   28.94    1.69
   4  -4   4   30.99    1.51
  -5   4  -4   -0.51    0.48
   5  -4   4   -0.34    0.59
   5  -4   4    0.29    0.54
  -6   4  -4   12.39    1.29
   6  -4   4   10.87    1.44
   6  -4   4   12.34    1.27
  -7   4  -4   63.48    2.63
   7  -4   4   62.11    2.93
   7  -4   4   61.94    2.49
  -8   4  -4   16.46    1.75
   8  -4   4   17.94    1.94
  -9   4  -4    9.36    1.45
   9  -4   4    4.82    1.31
  -9  -3   4    2.84    1.18
   8   3  -4   -0.57    0.63
  -8  -3   4    1.23    0.84
   7   3  -4   13.52    1.41
  -7  -3   4   12.28    1.50
   6   3  -4   32.39    1.76
   6   3  -4   37.08    1.78
  -6  -3   4   32.91    1.85
   5   3  -4   19.78    1.36
   5   3  -4   25.78    1.46
  -5  -3   4   23.98    1.51
  -5  -3   4   23.38    1.08
   4   3  -4    4.71    0.76
   4   3  -4    5.61    0.73
  -4  -3   4    4.00    0.53
  -4  -3   4    4.51    0.82
   3   3  -4   96.47    2.32
   3   3  -4   94.87    2.51
  -3  -3   4   98.12    1.87
   2   3  -4   14.24    0.62
   2   3  -4   14.67    0.92
  -2  -3   4   13.26    0.91
  -2  -3   4   14.81    0.89
   1   3  -4  119.44    1.99
   1   3  -4  124.63    2.60
  -1  -3   4  118.54    2.58
  -1  -3   4  120.23    2.75
   0   3  -4   13.36    0.58
   0   3  -4   13.31    0.76
   0  -3   4   13.03    0.97
   0  -3   4   13.23    0.73
  -1   3  -4   21.50    0.83
  -1   3  -4   20.78    0.91
   1  -3   4   21.16    1.20
   1  -3   4   19.35    0.84
  -2   3  -4    7.54    0.69
  -2   3  -4    6.90    0.63
   2  -3   4    8.07    0.54
   2  -3   4    7.17    0.84
  -3   3  -4   10.52    0.85
  -3   3  -4    9.96    0.85
   3  -3   4   10.19    0.55
   3  -3   4   10.35    1.03
  -4   3  -4   34.72    1.50
   4  -3   4   35.72    1.87
   4  -3   4   36.89    1.49
  -5   3  -4   42.55    1.86
   5  -3   4   38.91    2.01
   5  -3   4   39.61    1.69
  -6   3  -4   55.09    2.26
   6  -3   4   56.93    2.60
   6  -3   4   55.86    2.11
  -7   3  -4   50.00    2.32
   7  -3   4   48.04    2.56
  -8   3  -4    1.01    0.76
   8  -3   4    1.34    0.90
  -9   3  -4    6.13    1.29
   9  -3   4    6.74    1.50
   9   2  -4    0.57    0.85
   8   2  -4    1.15    0.73
  -8  -2   4    0.87    0.81
   7   2  -4   19.68    1.68
  -7  -2   4   20.92    1.82
   6   2  -4   34.99    1.72
   6   2  -4   34.39    1.79
  -6  -2   4   35.89    1.51
  -6  -2   4   36.16    1.91
   5   2  -4    4.22    0.71
   5   2  -4    3.73    0.75
  -5  -2   4    2.64    0.57
  -5  -2   4    2.54    0.69
   4   2  -4   28.61    1.46
   4   2  -4   26.69    1.21
  -4  -2   4   26.95    1.45
  -4  -2   4   26.33    1.11
   3   2  -4    1.18    0.44
   3   2  -4    0.92    0.35
  -3  -2   4    1.38    0.48
  -3  -2   4    1.08    0.33
   2   2  -4  199.31    3.34
   2   2  -4  200.67    3.75
  -2  -2   4  200.70    3.45
   1   2  -4  156.43    2.58
   1   2  -4  159.35    2.97
  -1  -2   4  155.12    3.02
  -1  -2   4  158.05    3.02
   0   2  -4   22.79    0.89
   0   2  -4   22.13    0.75
   0  -2   4   19.08    1.00
   0  -2   4   22.09    0.90
  -1   2  -4  198.31    3.27
  -1   2  -4  196.38    3.33
   1  -2   4  201.45    3.37
  -2   2  -4    5.21    0.51
  -2   2  -4    5.59    0.58
   2  -2   4    4.86    0.47
   2  -2   4    7.49    0.82
  -3   2  -4  261.73    4.25
  -3   2  -4  253.05    4.47
   3  -2   4  259.64    4.09
   3  -2   4  255.79    5.02
  -4   2  -4  360.41    6.09
   4  -2   4  364.34    6.74
   4  -2   4  368.50    5.84
   4  -2   4  355.41    5.46
  -5   2  -4   41.01    1.76
   5  -2   4   39.85    2.06
   5  -2   4   41.21    1.59
  -6   2  -4   37.59    1.84
   6  -2   4   40.96    1.71
   6  -2   4   37.35    2.16
  -7   2  -4    5.51    1.01
   7  -2   4    6.89    1.22
  -8   2  -4    0.70    0.74
   8  -2   4    0.63    0.87
  -9   2  -4    1.54    0.85
   9  -2   4    1.35    1.02
   9   1  -4    1.69    0.90
   8   1  -4    6.88    1.18
  -8  -1   4    5.89    1.17
  -8  -1   4    6.56    1.04
   7   1  -4   22.00    1.56
  -7  -1   4   23.64    1.47
  -7  -1   4   24.08    1.71
   6   1  -4   16.64    1.47
  -6  -1   4   15.82    1.43
  -6  -1   4   15.96    1.29
   5   1  -4    6.77    0.79
   5   1  -4    5.48    0.86
  -5  -1   4    5.14    0.73
  -5  -1   4    5.29    0.88
   4   1  -4   10.09    0.76
   4   1  -4    8.23    0.89
  -4  -1   4    9.00    0.96
  -4  -1   4   12.33    0.97
   3   1  -4    8.43    0.82
   3   1  -4    9.54    0.62
  -3  -1   4   10.30    0.83
  -3  -1   4    8.19    0.82
   2   1  -4  470.30    6.95
   2   1  -4  480.35    7.18
  -2  -1   4  477.85    7.34
  -2  -1   4  479.61    6.75
   1   1  -4    6.38    0.58
   1   1  -4    7.93    0.53
  -1  -1   4    6.74    0.64
  -1  -1   4    7.93    0.56
   0   1  -4  166.15    2.84
   0   1  -4  164.74    2.77
   0  -1   4  162.01    2.99
   0  -1   4  167.91    3.06
  -1   1  -4  484.55    6.67
  -1   1  -4  476.13    6.78
   1  -1   4  478.74    7.33
   1  -1   4  484.50    7.06
  -2   1  -4  189.24    3.36
  -2   1  -4  195.24    3.06
   2  -1   4  191.42    3.34
   2  -1   4  188.19    3.73
  -3   1  -4  354.74    5.72
  -3   1  -4  361.38    5.22
   3  -1   4  355.80    6.30
   3  -1   4  353.64    5.56
  -4   1  -4  265.37    4.55
  -4   1  -4  268.64    4.85
   4  -1   4  269.00    5.43
   4  -1   4  271.14    4.37
  -5   1  -4    1.24    0.44
  -5   1  -4    0.75    0.56
   5  -1   4    0.35    0.63
   5  -1   4    0.84    0.44
  -6   1  -4    7.80    1.04
   6  -1   4    7.28    1.25
  -7   1  -4   -0.06    0.55
   7  -1   4   -0.39    0.76
  -8   1  -4    4.63    0.99
   8  -1   4    3.49    1.11
  -9   1  -4   -0.29    0.67
   9  -1   4    0.27    1.03
   9   0  -4    0.38    0.78
  -9   0   4    0.63    0.73
   8   0  -4    0.88    0.78
  -8   0   4    1.34    0.68
   7   0  -4   16.91    1.60
  -7   0   4   18.79    1.55
  -7   0   4   17.76    1.62
   6   0  -4    9.43    1.16
  -6   0   4   10.29    1.14
  -6   0   4   12.47    1.27
   5   0  -4    0.74    0.54
   5   0  -4    0.91    0.44
  -5   0   4    0.63    0.50
  -5   0   4    0.45    0.46
   4   0  -4   96.17    2.03
   4   0  -4   97.22    2.64
  -4   0   4   99.74    2.55
  -4   0   4   94.54    2.56
   3   0  -4    1.05    0.42
   3   0  -4    0.51    0.22
   3   0  -4    0.52    0.38
  -3   0   4    0.11    0.37
  -3   0   4    1.46    0.43
   2   0  -4   21.53    1.01
   2   0  -4   23.81    1.06
   2   0  -4   22.49    0.54
  -2   0   4   24.32    1.11
   1   0  -4   15.88    0.76
   1   0  -4   15.75    0.74
  -1   0   4   13.97    0.80
  -1   0   4   15.98    0.56
   0   0  -4  253.49    4.00
   0   0  -4  254.38    3.91
   0   0   4  256.65    4.01
   0   0   4  264.74    4.36
  -1   0  -4  111.91    2.24
  -1   0  -4  112.48    1.91
   1   0   4  111.65    2.39
   1   0   4  112.97    2.34
  -2   0  -4  149.38    2.31
  -2   0  -4  146.85    2.86
   2   0   4  150.33    3.12
   2   0   4  148.63    2.97
  -3   0  -4  296.12    5.01
  -3   0  -4  296.31    4.97
  -3   0  -4  303.21    4.23
   3   0   4  295.32    5.47
  -4   0  -4    0.93    0.44
  -4   0  -4    0.80    0.47
   4   0   4    1.19    0.31
   4   0   4   -0.85    0.54
  -5   0  -4    2.04    0.61
  -5   0  -4    1.96    0.56
   5   0   4    1.69    0.74
   5   0   4    1.92    0.44
  -6   0  -4    0.00    0.54
  -6   0  -4    0.80    0.55
   6   0   4   -0.32    0.65
  -7   0  -4    2.09    0.73
   7   0   4    2.98    1.00
  -8   0  -4    8.98    1.28
   8   0   4    8.05    1.41
  -9   0  -4    2.58    0.94
   9   0   4    2.24    1.21
   9  -1  -4   -0.29    0.76
  -9   1   4   -0.21    0.71
   8  -1  -4    5.30    1.09
  -8   1   4    4.21    0.99
   7  -1  -4    3.39    0.89
  -7   1   4    2.86    0.80
  -7   1   4    3.37    0.90
   6  -1  -4    8.27    1.08
  -6   1   4    8.45    1.09
  -6   1   4   11.20    1.17
   5  -1  -4    1.73    0.61
  -5   1   4    1.36    0.59
  -5   1   4    0.68    0.53
   4  -1  -4   62.52    1.46
   4  -1  -4   60.68    2.04
  -4   1   4   59.40    2.06
  -4   1   4   61.24    1.95
   3  -1  -4   69.44    1.26
   3  -1  -4   69.17    2.03
   3  -1  -4   69.14    2.12
  -3   1   4   73.55    2.04
   2  -1  -4   46.89    1.56
   2  -1  -4   48.82    1.53
  -2   1   4   47.66    1.56
   1  -1  -4  685.86    9.38
   1  -1  -4  668.57    9.41
  -1   1   4  680.52    9.84
   0  -1  -4   93.02    2.00
   0  -1  -4   94.29    1.79
   0   1   4   90.93    1.77
   0   1   4   91.77    2.19
  -1  -1  -4   25.81    0.98
  -1  -1  -4   26.07    0.69
   1   1   4   25.01    1.01
   1   1   4   26.50    1.12
  -2  -1  -4   23.90    1.02
  -2  -1  -4   24.40    0.53
  -2  -1  -4   26.85    1.18
   2   1   4   22.94    1.12
  -3  -1  -4    0.65    0.41
  -3  -1  -4    0.10    0.12
  -3  -1  -4    0.25    0.34
   3   1   4    0.01    0.40
  -4  -1  -4  100.88    2.58
  -4  -1  -4  103.60    2.69
   4   1   4  100.32    2.95
  -5  -1  -4   79.86    2.42
  -5  -1  -4   79.07    2.51
   5   1   4   82.75    2.85
  -6  -1  -4   61.53    2.30
  -6  -1  -4   62.98    2.28
   6   1   4   62.72    2.70
  -7  -1  -4   34.59    1.90
   7   1   4   41.18    2.35
  -8  -1  -4   -0.14    0.62
   8   1   4    0.33    0.90
  -9  -1  -4   14.18    1.64
   9   1   4   15.31    2.02
   9  -2  -4    2.29    1.01
  -9   2   4    0.15    0.79
   8  -2  -4    6.15    1.22
  -8   2   4    5.89    1.17
   7  -2  -4    2.77    0.89
  -7   2   4    2.69    0.88
   6  -2  -4    0.15    0.51
  -6   2   4    1.12    0.60
  -6   2   4    0.09    0.53
   5  -2  -4   39.82    1.84
  -5   2   4   43.82    1.77
  -5   2   4   40.77    1.90
   4  -2  -4  273.12    4.34
   4  -2  -4  280.81    5.30
  -4   2   4  280.38    5.11
  -4   2   4  283.07    5.47
   3  -2  -4  124.92    2.09
   3  -2  -4  123.14    3.09
   3  -2  -4  122.18    2.92
  -3   2   4  132.37    2.93
   2  -2  -4  171.65    3.30
  -2   2   4  166.21    3.42
   1  -2  -4  165.62    3.19
   1  -2  -4  160.70    2.98
  -1   2   4  163.29    2.49
  -1   2   4  166.13    3.34
   0  -2  -4   50.05    1.45
   0  -2  -4   52.66    1.25
   0   2   4   49.83    1.62
   0   2   4   51.98    1.27
  -1  -2  -4  204.37    3.55
  -1  -2  -4  195.09    2.89
  -1  -2  -4  199.60    3.87
   1   2   4  199.25    3.60
  -2  -2  -4   10.62    0.93
  -2  -2  -4   10.30    0.74
   2   2   4   12.39    0.96
  -3  -2  -4    3.45    0.67
  -3  -2  -4    3.41    0.56
   3   2   4    3.10    0.65
  -4  -2  -4   36.05    1.50
  -4  -2  -4   37.49    1.71
   4   2   4   39.14    1.92
  -5  -2  -4    1.33    0.65
  -5  -2  -4    1.43    0.59
   5   2   4    1.26    0.72
  -6  -2  -4   -0.31    0.44
  -6  -2  -4    0.08    0.57
   6   2   4    0.06    0.68
  -7  -2  -4   43.95    2.21
  -7  -2  -4   48.92    2.17
   7   2   4   43.46    2.50
  -8  -2  -4   25.64    1.72
   8   2   4   23.84    2.24
  -9  -2  -4    9.49    1.41
   9   2   4   11.80    1.81
   9  -3  -4    1.41    1.02
  -9   3   4    1.63    0.95
   8  -3  -4    0.34    0.75
  -8   3   4    0.13    0.67
   7  -3  -4    2.98    0.93
  -7   3   4    2.24    0.84
   6  -3  -4   -0.12    0.56
  -6   3   4   -0.05    0.55
  -6   3   4    1.06    0.58
   5  -3  -4    6.11    0.96
  -5   3   4    7.27    1.08
  -5   3   4    8.79    0.98
   4  -3  -4  283.58    5.50
  -4   3   4  284.42    5.20
  -4   3   4  293.92    5.74
   3  -3  -4  197.61    4.27
   3  -3  -4  198.94    3.24
   3  -3  -4  193.38    4.02
  -3   3   4  201.73    3.94
   2  -3  -4   17.88    1.14
   2  -3  -4   15.85    0.61
   2  -3  -4   18.09    1.03
  -2   3   4   19.00    1.07
   1  -3  -4   52.46    1.52
   1  -3  -4   49.65    1.63
  -1   3   4   50.37    1.20
  -1   3   4   52.51    1.70
   0  -3  -4   19.44    0.96
   0  -3  -4   17.29    0.76
   0  -3  -4   17.14    1.03
   0   3   4   17.69    0.82
   0   3   4   16.92    1.03
  -1  -3  -4   99.71    2.58
  -1  -3  -4   97.23    2.25
  -1  -3  -4  101.24    1.81
   1   3   4  100.92    2.33
  -2  -3  -4   31.16    1.48
  -2  -3  -4   28.81    1.18
   2   3   4   29.97    1.39
  -3  -3  -4    4.58    0.63
  -3  -3  -4    5.66    0.86
   3   3   4    4.77    0.79
  -4  -3  -4    5.06    0.89
  -4  -3  -4    4.11    0.67
   4   3   4    3.23    0.78
  -5  -3  -4    6.55    0.87
  -5  -3  -4    6.40    1.05
   5   3   4    4.65    1.00
  -6  -3  -4   65.63    2.39
  -6  -3  -4   72.87    2.79
   6   3   4   72.18    2.94
  -7  -3  -4   11.07    1.44
  -7  -3  -4    7.75    1.08
   7   3   4    7.96    1.42
  -8  -3  -4   12.17    1.42
   8   3   4    9.80    1.66
  -9  -3  -4    8.38    1.31
   9   3   4    6.51    1.51
   9  -4  -4    0.37    0.84
  -9   4   4   -0.42    0.82
   8  -4  -4   32.91    2.27
  -8   4   4   34.06    2.27
   7  -4  -4   14.33    1.65
  -7   4   4   15.97    1.71
   6  -4  -4   -0.31    0.57
  -6   4   4    0.03    0.60
   5  -4  -4   52.69    2.24
  -5   4   4   48.76    1.87
  -5   4   4   48.47    2.27
   4  -4  -4   22.30    1.45
  -4   4   4   23.30    1.28
  -4   4   4   21.42    1.45
   3  -4  -4    0.26    0.50
   3  -4  -4    0.94    0.46
   3  -4  -4    0.51    0.36
  -3   4   4    0.68    0.48
   2  -4  -4    4.22    0.48
   2  -4  -4    3.86    0.68
   2  -4  -4    3.39    0.63
  -2   4   4    4.15    0.66
   1  -4  -4    2.61    0.52
   1  -4  -4    1.71    0.49
  -1   4   4    2.10    0.55
  -1   4   4    1.45    0.38
   0  -4  -4   42.75    1.33
   0  -4  -4   41.18    1.45
   0  -4  -4   41.91    1.65
   0   4   4   40.61    1.36
  -1  -4  -4   14.80    0.70
  -1  -4  -4   14.37    0.89
  -1  -4  -4   15.36    1.09
   1   4   4   14.21    0.93
  -2  -4  -4  248.17    4.97
  -2  -4  -4  243.01    4.35
   2   4   4  240.60    4.74
   2   4   4  245.91    3.31
  -3  -4  -4   52.86    1.73
  -3  -4  -4   52.41    2.10
   3   4   4   58.45    2.20
  -4  -4  -4    3.10    0.62
  -4  -4  -4    2.61    0.74
   4   4   4    2.04    0.76
  -5  -4  -4   66.49    2.68
  -5  -4  -4   73.67    2.30
   5   4   4   68.32    2.75
  -6  -4  -4   37.57    1.78
  -6  -4  -4   38.27    2.15
   6   4   4   34.88    2.21
  -7  -4  -4   -0.01    0.66
  -7  -4  -4    1.02    0.65
   7   4   4    0.57    0.79
  -8  -4  -4   -0.06    0.78
  -8  -4  -4    1.23    0.76
   8   4   4    0.10    0.99
   8  -5  -4   11.84    1.64
  -8   5   4   12.77    1.70
   7  -5  -4   20.80    1.95
  -7   5   4   18.17    1.88
   6  -5  -4    2.73    0.91
  -6   5   4    3.60    0.96
   5  -5  -4    3.50    0.86
  -5   5   4    2.95    0.82
   4  -5  -4    1.16    0.60
  -4   5   4    0.55    0.51
  -4   5   4    0.79    0.55
   3  -5  -4   40.20    1.95
   3  -5  -4   37.51    1.74
   3  -5  -4   40.11    1.48
  -3   5   4   40.75    1.63
   2  -5  -4   19.30    1.04
   2  -5  -4   15.28    1.30
   2  -5  -4   16.53    1.29
  -2   5   4   18.68    1.17
   1  -5  -4   16.20    1.09
   1  -5  -4   15.53    1.02
   1  -5  -4   17.65    1.00
  -1   5   4   17.04    1.16
   0  -5  -4    3.93    0.71
   0  -5  -4    5.63    0.68
   0  -5  -4    4.49    0.66
   0   5   4    4.69    0.66
  -1  -5  -4  158.26    3.79
  -1  -5  -4  166.01    2.97
  -1  -5  -4  162.51    3.36
   1   5   4  164.69    3.58
  -2  -5  -4  267.02    5.43
  -2  -5  -4  273.62    4.78
   2   5   4  260.59    3.83
   2   5   4  264.40    5.27
  -3  -5  -4  140.31    3.79
  -3  -5  -4  135.44    3.08
   3   5   4  143.58    3.72
  -4  -5  -4   36.84    1.56
  -4  -5  -4   30.50    1.81
   4   5   4   33.32    1.90
  -5  -5  -4   46.60    2.34
  -5  -5  -4   48.74    1.89
   5   5   4   50.98    2.46
  -6  -5  -4    7.16    1.26
  -6  -5  -4    7.89    1.03
   6   5   4    6.85    1.30
  -7  -5  -4    9.39    1.17
  -7  -5  -4   10.51    1.56
   7   5   4    8.27    1.53
  -8  -5  -4    0.74    1.00
   8   5   4   -0.13    0.98
   8  -6  -4   12.93    1.76
  -8   6   4   12.88    1.73
   7  -6  -4   12.25    1.63
  -7   6   4   13.30    1.67
   6  -6  -4   -0.24    0.65
  -6   6   4    0.34    0.64
   5  -6  -4    6.63    1.12
  -5   6   4    8.08    1.24
   4  -6  -4    4.17    0.88
  -4   6   4    6.27    1.02
  -4   6   4    4.48    0.78
   3  -6  -4   31.13    1.81
   3  -6  -4   33.87    1.73
   3  -6  -4   31.79    1.45
  -3   6   4   32.66    1.54
   2  -6  -4   37.44    1.55
   2  -6  -4   37.14    1.79
   2  -6  -4   36.15    1.73
  -2   6   4   38.03    1.65
   1  -6  -4   12.36    1.20
   1  -6  -4   11.94    1.17
   1  -6  -4   11.53    1.02
   1  -6  -4   13.07    1.14
   0  -6  -4   24.19    1.33
   0  -6  -4   24.28    1.42
   0  -6  -4   24.03    1.24
   0   6   4   23.25    1.34
  -1  -6  -4  127.91    2.98
  -1  -6  -4  125.52    2.63
  -1  -6  -4  124.07    3.41
   1   6   4  121.46    3.20
  -2  -6  -4  216.03    4.23
  -2  -6  -4  216.34    4.92
   2   6   4  220.26    4.85
  -3  -6  -4   84.86    2.36
  -3  -6  -4   76.03    2.82
   3   6   4   82.37    2.87
  -4  -6  -4    1.66    0.75
  -4  -6  -4    1.45    0.56
   4   6   4    0.66    0.70
  -5  -6  -4   21.76    1.94
  -5  -6  -4   24.80    1.40
   5   6   4   19.74    1.84
  -6  -6  -4    3.22    1.04
  -6  -6  -4    1.61    0.68
   6   6   4    2.25    1.00
  -7  -6  -4    8.99    1.52
   7   6   4   12.09    1.74
  -8  -6  -4   -1.20    0.81
   8   6   4   -1.27    0.79
   8  -7  -4    6.90    1.49
  -8   7   4    8.03    1.53
   7  -7  -4   -0.46    0.79
  -7   7   4    1.25    0.86
   6  -7  -4    0.59    0.81
  -6   7   4    0.70    0.72
   5  -7  -4   48.05    2.42
  -5   7   4   50.35    2.43
   4  -7  -4    2.54    0.81
  -4   7   4    4.20    0.89
   3  -7  -4    1.84    0.73
  -3   7   4    2.50    0.75
  -3   7   4    1.68    0.59
   2  -7  -4   69.50    2.49
   2  -7  -4   66.64    2.50
   2  -7  -4   70.73    2.31
  -2   7   4   67.67    2.34
   1  -7  -4   67.04    2.39
   1  -7  -4   63.22    2.32
   1  -7  -4   65.73    2.28
   1  -7  -4   68.05    2.30
   0  -7  -4   67.91    2.44
   0  -7  -4   68.06    2.18
   0  -7  -4   72.65    2.34
   0   7   4   70.52    2.43
  -1  -7  -4   36.36    1.63
  -1  -7  -4   36.78    1.88
   1   7   4   32.69    1.32
   1   7   4   36.17    1.90
  -2  -7  -4   29.70    1.78
  -2  -7  -4   30.84    1.48
   2   7   4   28.07    1.80
  -3  -7  -4    0.48    0.49
  -3  -7  -4    1.46    0.71
   3   7   4    2.72    0.89
  -4  -7  -4    0.32    0.63
  -4  -7  -4    0.28    0.48
   4   7   4   -0.27    0.68
  -5  -7  -4   -0.15    0.65
   5   7   4    2.02    0.92
  -6  -7  -4    1.51    0.94
   6   7   4    4.01    1.18
  -7  -7  -4    4.08    1.24
   7   7   4    6.40    1.49
   7  -8  -4    2.04    0.98
  -7   8   4    0.27    0.86
   6  -8  -4    8.67    1.42
  -6   8   4   11.49    1.54
   5  -8  -4   57.16    2.72
  -5   8   4   53.75    2.57
   4  -8  -4   69.33    2.84
  -4   8   4   67.70    2.74
   3  -8  -4   23.29    1.61
  -3   8   4   22.04    1.56
  -3   8   4   21.18    1.36
   2  -8  -4   82.68    2.75
   2  -8  -4   81.90    2.82
   2  -8  -4   86.52    2.89
  -2   8   4   85.03    2.70
   1  -8  -4   72.50    2.57
   1  -8  -4   71.13    2.51
   1  -8  -4   70.82    2.54
   1  -8  -4   70.49    2.55
   0  -8  -4   11.93    1.17
   0  -8  -4   13.12    1.37
   0  -8  -4   14.60    1.31
   0   8   4   13.17    1.37
  -1  -8  -4    0.42    0.53
  -1  -8  -4   -0.02    0.56
   1   8   4    1.43    0.76
  -2  -8  -4    0.12    0.50
  -2  -8  -4    0.65    0.62
   2   8   4    1.59    0.80
  -3  -8  -4   80.15    3.08
  -3  -8  -4   75.27    2.40
   3   8   4   72.42    3.02
  -4  -8  -4    1.12    0.80
   4   8   4    2.96    0.99
  -5  -8  -4    1.75    0.92
   5   8   4    2.13    1.02
  -6  -8  -4   -0.89    0.79
   6   8   4    0.20    0.86
  -7  -8  -4    6.98    1.56
   7   8   4    8.85    1.71
  -7   9   4    1.09    0.96
   6  -9  -4   24.59    2.28
  -6   9   4   19.50    1.96
   5  -9  -4   39.55    2.41
  -5   9   4   39.97    2.33
   4  -9  -4   21.59    1.94
  -4   9   4   15.37    1.61
   3  -9  -4   66.28    2.72
  -3   9   4   62.32    2.61
   2  -9  -4   25.03    1.66
   2  -9  -4   23.50    1.68
   2  -9  -4   26.74    1.76
  -2   9   4   26.09    1.58
   1  -9  -4    3.72    0.93
   1  -9  -4    3.66    0.87
   1  -9  -4    3.77    0.89
   1  -9  -4    5.22    0.99
   0  -9  -4   19.97    1.57
   0  -9  -4   17.30    1.65
   0  -9  -4   22.69    1.52
   0   9   4   23.41    1.45
   0   9   4   22.68    1.73
  -1  -9  -4    2.42    0.79
  -1  -9  -4    2.87    0.75
   1   9   4    3.11    0.93
  -2  -9  -4   -0.36    0.62
   2   9   4   -0.25    0.62
  -3  -9  -4    8.20    1.32
   3   9   4    7.33    1.36
  -4  -9  -4    2.73    1.00
   4   9   4    1.27    0.99
  -5  -9  -4    1.22    0.88
   5   9   4    2.22    1.15
  -6  -9  -4    4.51    1.31
   6   9   4    4.66    1.41
   6 -10  -4   11.39    1.72
  -6  10   4   11.17    1.60
   5 -10  -4   20.34    2.07
  -5  10   4   20.06    1.98
   4 -10  -4   10.27    1.49
  -4  10   4    7.98    1.27
   3 -10  -4   12.35    1.53
  -3  10   4   12.09    1.44
   2 -10  -4   16.06    1.67
  -2  10   4   12.93    1.44
   1 -10  -4    2.19    0.86
   1 -10  -4    1.49    0.74
   1 -10  -4    2.31    0.87
   1 -10  -4    2.16    0.80
   0 -10  -4   21.21    1.85
   0  10   4   16.27    1.76
  -1 -10  -4    0.19    0.65
   1  10   4    1.03    0.84
  -2 -10  -4    1.12    0.79
   2  10   4    0.36    0.83
  -3 -10  -4   -0.71    0.66
   3  10   4   -0.48    0.82
  -4 -10  -4   27.39    2.43
   4  10   4   20.61    2.23
  -5 -10  -4   11.76    1.75
   5  10   4   12.89    1.92
   5 -11  -4   11.74    1.72
  -5  11   4   12.64    1.66
   4 -11  -4    0.83    0.91
  -4  11   4    0.75    0.79
   3 -11  -4    0.48    0.79
  -3  11   4    0.06    0.69
   2 -11  -4    1.24    0.80
  -2  11   4    2.67    0.86
   1 -11  -4    4.04    1.08
  -1  11   4    4.88    0.99
   0 -11  -4   -0.07    0.78
   0  11   4    1.25    0.88
  -1 -11  -4    3.62    1.06
   1  11   4    5.15    1.33
  -2 -11  -4   13.83    1.78
   2  11   4   18.97    2.14
  -3 -11  -4   15.45    1.87
   3  11   4   16.04    2.08
  -4 -11  -4    9.43    1.65
   4  11   4    7.48    1.68
   3 -12  -4    0.46    0.86
   2 -12  -4    1.82    0.98
  -2  12   4    0.90    0.81
  -1  12   4    0.67    0.93
   0 -12  -4    1.87    0.95
   0  12   4    1.98    1.06
  -1 -12  -4   30.04    2.23
   1  12   4   30.36    2.67
  -2 -12  -4   28.93    2.52
   2  12   4   25.36    2.56
   2  12  -5   -0.30    0.79
  -2 -12   5    0.54    0.95
  -2 -12   5    1.87    0.93
   1  12  -5    5.57    1.27
  -1 -12   5    5.54    1.38
   0  12  -5    9.06    1.41
   0 -12   5    9.94    1.76
  -1  12  -5   36.22    2.34
   1 -12   5   36.98    2.71
  -2  12  -5    5.05    1.22
   2 -12   5    5.48    1.40
  -3  12  -5   47.67    2.76
   3 -12   5   48.57    3.06
   4  11  -5    0.49    0.87
   4  11  -5   -0.66    0.90
  -4 -11   5    0.72    0.87
   3  11  -5   -0.20    0.77
  -3 -11   5    0.79    0.94
  -3 -11   5    0.84    0.80
   2  11  -5    2.92    1.00
  -2 -11   5    1.46    1.03
  -2 -11   5    4.17    1.05
   1  11  -5   25.60    1.86
  -1 -11   5   23.24    2.27
  -1 -11   5   30.14    1.91
   0  11  -5   60.86    2.75
   0 -11   5   58.22    3.21
  -1  11  -5   19.11    1.87
   1 -11   5   20.49    2.18
  -2  11  -5   18.67    1.83
   2 -11   5   17.13    2.07
  -3  11  -5   18.73    1.91
   3 -11   5   15.05    1.96
  -4  11  -5   -0.14    0.77
   4 -11   5   -0.13    0.86
  -5  11  -5   -0.06    0.76
   5 -11   5    0.13    1.01
   5  10  -5   -0.38    0.80
   5  10  -5    0.73    1.00
  -5 -10   5    1.08    0.84
   4  10  -5    5.07    1.18
   4  10  -5    7.82    1.43
  -4 -10   5    7.40    1.32
   3  10  -5   16.34    1.68
  -3 -10   5   15.48    1.70
  -3 -10   5   17.63    1.95
   2  10  -5    7.38    1.21
  -2 -10   5    4.27    1.16
  -2 -10   5    5.14    1.04
   1  10  -5   16.81    1.63
  -1 -10   5   16.12    1.88
  -1 -10   5   17.12    1.60
   0  10  -5  115.49    3.69
   0 -10   5  121.27    4.36
  -1  10  -5    6.75    1.16
   1 -10   5    5.73    1.27
  -2  10  -5    0.75    0.67
   2 -10   5    0.98    0.89
  -3  10  -5    1.89    0.91
   3 -10   5    3.06    1.10
  -4  10  -5    8.16    1.38
   4 -10   5   11.74    1.77
  -5  10  -5   13.23    1.67
   5 -10   5   12.18    1.89
  -6  10  -5    2.54    1.06
   6 -10   5    2.50    1.17
   6   9  -5    0.41    0.97
   6   9  -5    1.10    0.87
  -6  -9   5    1.39    0.92
   5   9  -5    1.75    0.90
   5   9  -5    1.20    0.93
  -5  -9   5    0.56    0.83
   4   9  -5   36.50    2.27
   4   9  -5   30.79    1.97
  -4  -9   5   31.19    2.07
   3   9  -5   28.65    1.78
  -3  -9   5   26.57    1.80
  -3  -9   5   27.73    2.04
   2   9  -5    3.10    0.83
  -2  -9   5    1.64    0.82
  -2  -9   5    3.94    0.92
   1   9  -5   34.10    1.91
  -1  -9   5   39.81    1.95
  -1  -9   5   34.18    2.29
   0   9  -5    3.64    0.84
   0  -9   5    5.18    0.87
   0  -9   5    2.66    0.92
  -1   9  -5    1.26    0.66
   1  -9   5    3.81    1.03
  -2   9  -5    2.01    0.82
   2  -9   5    3.00    1.02
  -3   9  -5    0.42    0.65
   3  -9   5    1.29    0.84
  -4   9  -5   -0.01    0.60
   4  -9   5    0.56    0.89
  -5   9  -5    6.21    1.09
  -5   9  -5    5.87    1.21
   5  -9   5    9.24    1.64
  -6   9  -5   20.65    2.02
  -6   9  -5   19.97    1.83
   6  -9   5   16.07    2.10
  -7   9  -5    7.46    1.44
  -7  -8   5    2.74    1.09
   6   8  -5    1.77    0.95
   6   8  -5    1.20    0.85
  -6  -8   5    1.09    0.87
   5   8  -5    7.76    1.23
   5   8  -5    6.23    1.19
  -5  -8   5    6.62    1.24
   4   8  -5   27.79    1.77
   4   8  -5   30.17    1.93
  -4  -8   5   34.48    1.99
   3   8  -5    7.84    1.10
  -3  -8   5    8.69    1.20
  -3  -8   5    9.44    1.31
   2   8  -5    1.43    0.70
  -2  -8   5    1.21    0.69
  -2  -8   5    0.88    0.69
   1   8  -5    5.29    0.93
  -1  -8   5    2.16    0.87
  -1  -8   5    3.36    0.80
   0   8  -5    0.23    0.51
   0  -8   5    0.28    0.47
   0  -8   5    0.64    0.74
  -1   8  -5   35.13    1.82
   1  -8   5   33.04    2.11
   1  -8   5   36.48    1.53
  -2   8  -5    2.51    0.77
   2  -8   5    1.77    0.85
  -3   8  -5   10.54    1.27
  -3   8  -5    9.31    1.01
   3  -8   5   10.12    1.52
  -4   8  -5    7.36    1.00
  -4   8  -5    7.17    1.14
   4  -8   5    8.41    1.42
  -5   8  -5   11.56    1.40
  -5   8  -5    9.75    1.24
   5  -8   5   12.46    1.70
  -6   8  -5   35.68    2.19
  -6   8  -5   31.74    1.94
   6  -8   5   33.73    2.48
  -7   8  -5   41.21    2.39
  -7   8  -5   42.44    2.41
   7   7  -5    8.94    1.39
  -7  -7   5   10.83    1.59
   6   7  -5    2.56    0.95
   6   7  -5    2.54    0.92
  -6  -7   5    2.51    0.97
   5   7  -5    3.54    0.96
  -5  -7   5    3.93    0.97
   4   7  -5   84.16    2.93
   4   7  -5   84.22    2.97
  -4  -7   5   90.94    3.18
   3   7  -5    3.53    0.80
  -3  -7   5    5.73    0.97
  -3  -7   5    6.56    1.03
   2   7  -5   21.50    1.40
  -2  -7   5   22.26    1.41
  -2  -7   5   20.85    1.54
   1   7  -5    0.40    0.52
  -1  -7   5    0.54    0.53
  -1  -7   5   -0.03    0.66
   0   7  -5    7.40    0.94
   0  -7   5    5.89    1.14
   0  -7   5    7.22    0.88
  -1   7  -5   19.92    1.39
   1  -7   5   21.68    1.17
   1  -7   5   22.61    1.99
  -2   7  -5   26.73    1.54
  -2   7  -5   24.94    1.23
   2  -7   5   20.26    1.90
  -3   7  -5  208.53    4.15
  -3   7  -5  205.26    4.71
   3  -7   5  203.09    5.45
  -4   7  -5   19.77    1.65
  -4   7  -5   21.25    1.40
   4  -7   5   17.19    1.79
  -5   7  -5   43.45    2.04
  -5   7  -5   46.04    2.23
   5  -7   5   41.42    2.48
  -6   7  -5   47.69    2.27
  -6   7  -5   41.83    2.21
   6  -7   5   40.45    2.63
  -7   7  -5   13.46    1.60
  -7   7  -5   12.83    1.59
   7  -7   5   19.55    2.14
  -8   7  -5    1.65    1.02
   8  -7   5    2.73    1.25
  -8  -6   5    5.71    1.34
   7   6  -5    1.50    0.80
  -7  -6   5    0.75    0.83
   6   6  -5    1.02    0.77
   6   6  -5    0.10    0.68
  -6  -6   5   -0.13    0.66
   5   6  -5   17.67    1.58
   5   6  -5   16.28    1.52
  -5  -6   5   17.49    1.71
   4   6  -5    5.28    0.95
   4   6  -5    2.79    0.76
  -4  -6   5    3.41    0.81
   3   6  -5   -0.23    0.51
  -3  -6   5    1.54    0.64
  -3  -6   5   -0.06    0.50
   2   6  -5    3.63    0.77
  -2  -6   5    4.47    0.79
  -2  -6   5    6.09    0.94
   1   6  -5    0.92    0.53
  -1  -6   5    0.87    0.59
  -1  -6   5   -0.24    0.37
   0   6  -5    9.38    0.98
   0  -6   5   10.07    0.93
   0  -6   5    7.73    1.13
  -1   6  -5    0.39    0.35
  -1   6  -5    0.08    0.41
   1  -6   5    0.48    0.70
   1  -6   5    0.11    0.37
  -2   6  -5  321.47    5.97
  -2   6  -5  324.05    5.28
   2  -6   5  321.15    5.13
   2  -6   5  327.77    6.96
  -3   6  -5   22.52    1.37
  -3   6  -5   22.48    1.27
   3  -6   5   16.82    1.68
  -4   6  -5   35.99    1.67
  -4   6  -5   38.56    1.86
   4  -6   5   40.25    2.29
  -5   6  -5   47.55    2.12
  -5   6  -5   42.14    2.05
   5  -6   5   48.26    2.58
  -6   6  -5    9.25    1.23
  -6   6  -5   10.17    1.28
   6  -6   5   11.45    1.58
  -7   6  -5    1.40    0.80
  -7   6  -5    2.14    0.90
   7  -6   5    2.78    1.14
  -8   6  -5    0.40    0.90
   8  -6   5   -0.13    0.97
   8   5  -5    1.94    0.99
  -8  -5   5    1.88    1.01
   7   5  -5    1.29    0.81
  -7  -5   5    2.11    0.95
   6   5  -5    7.59    1.14
   6   5  -5    7.06    1.15
  -6  -5   5    5.77    1.11
   5   5  -5    1.63    0.67
   5   5  -5    1.69    0.74
  -5  -5   5    1.20    0.63
   4   5  -5   -0.05    0.56
   4   5  -5    1.07    0.61
  -4  -5   5    0.57    0.61
   3   5  -5    0.86    0.57
  -3  -5   5    1.31    0.56
  -3  -5   5    1.70    0.59
   2   5  -5   22.38    1.36
  -2  -5   5   21.74    1.28
  -2  -5   5   21.61    1.36
   1   5  -5   25.03    1.32
   1   5  -5   23.74    0.69
  -1  -5   5   27.10    1.33
  -1  -5   5   25.26    1.56
   0   5  -5    0.62    0.27
   0   5  -5    0.05    0.40
   0  -5   5    0.65    0.56
   0  -5   5    0.86    0.40
  -1   5  -5   96.88    2.06
  -1   5  -5   95.24    2.56
   1  -5   5   97.90    2.28
   1  -5   5   99.89    3.20
  -2   5  -5  409.68    6.83
  -2   5  -5  413.91    6.32
   2  -5   5  403.76    6.16
   2  -5   5  409.07    7.84
  -3   5  -5   41.67    1.69
  -3   5  -5   43.15    1.64
   3  -5   5   42.56    2.13
  -4   5  -5   -0.25    0.46
  -4   5  -5    0.06    0.46
   4  -5   5    0.54    0.69
  -5   5  -5   21.61    1.64
  -5   5  -5   19.50    1.38
   5  -5   5   17.82    1.77
  -6   5  -5    0.03    0.54
  -6   5  -5    0.09    0.62
   6  -5   5    0.30    0.79
  -7   5  -5   16.08    1.66
   7  -5   5   14.90    1.55
   7  -5   5   19.12    2.01
  -8   5  -5    0.31    0.76
   8  -5   5   -0.46    0.85
   8   4  -5    5.98    1.21
  -8  -4   5    7.94    1.44
   7   4  -5   -0.83    0.52
  -7  -4   5    0.26    0.71
   6   4  -5    0.96    0.70
  -6  -4   5    1.67    0.77
   5   4  -5    0.77    0.57
   5   4  -5    0.15    0.55
  -5  -4   5    1.96    0.73
   4   4  -5    1.79    0.66
   4   4  -5    1.78    0.61
  -4  -4   5    2.88    0.75
   3   4  -5   35.03    1.63
  -3  -4   5   35.85    1.72
  -3  -4   5   35.53    1.52
   2   4  -5   62.25    1.34
   2   4  -5   64.13    2.07
  -2  -4   5   59.07    2.04
  -2  -4   5   63.30    2.00
   1   4  -5  359.98    6.01
   1   4  -5  355.51    5.01
  -1  -4   5  356.87    6.42
  -1  -4   5  358.36    6.05
   0   4  -5   93.40    1.84
   0   4  -5   93.37    2.36
   0  -4   5   93.01    2.79
   0  -4   5   94.40    2.27
  -1   4  -5   43.62    1.54
  -1   4  -5   45.66    1.30
   1  -4   5   41.70    1.38
   1  -4   5   45.59    1.98
  -2   4  -5  130.49    2.71
  -2   4  -5  130.29    2.91
   2  -4   5  128.92    2.50
   2  -4   5  131.14    3.50
  -3   4  -5   18.25    1.10
  -3   4  -5   20.90    1.17
   3  -4   5   19.38    0.82
   3  -4   5   19.31    1.46
  -4   4  -5   28.74    1.39
  -4   4  -5   23.20    1.34
   4  -4   5   25.63    1.66
  -5   4  -5   14.76    1.25
  -5   4  -5   15.21    1.36
   5  -4   5   13.72    1.52
  -6   4  -5    0.37    0.57
  -6   4  -5    1.63    0.64
   6  -4   5    1.69    0.90
   6  -4   5    0.87    0.60
  -7   4  -5    8.28    1.29
   7  -4   5    5.67    1.29
  -8   4  -5    5.40    1.16
   8  -4   5    6.74    1.38
   8   3  -5   10.73    1.46
  -8  -3   5   10.36    1.56
   7   3  -5   -0.55    0.60
  -7  -3   5   -0.57    0.65
   6   3  -5    4.29    0.89
  -6  -3   5    4.71    0.98
   5   3  -5   43.31    1.75
   5   3  -5   41.41    1.94
  -5  -3   5   39.51    1.96
   4   3  -5   79.00    2.17
   4   3  -5   73.65    2.45
  -4  -3   5   72.68    2.47
  -4  -3   5   77.07    1.88
   3   3  -5   15.28    1.24
  -3  -3   5   14.90    0.80
  -3  -3   5   15.84    0.96
  -3  -3   5   13.28    1.17
   2   3  -5  236.08    3.85
   2   3  -5  247.48    4.56
  -2  -3   5  240.74    4.33
  -2  -3   5  240.09    4.59
   1   3  -5   84.62    2.19
   1   3  -5   79.16    1.67
  -1  -3   5   81.94    2.26
  -1  -3   5   81.86    2.21
   0   3  -5   34.87    1.30
   0   3  -5   34.78    1.03
   0  -3   5   33.83    1.55
   0  -3   5   33.52    1.28
  -1   3  -5   51.41    1.42
  -1   3  -5   53.55    1.58
   1  -3   5   49.98    1.91
   1  -3   5   50.74    1.48
  -2   3  -5    2.63    0.47
  -2   3  -5    2.57    0.46
   2  -3   5    1.57    0.58
   2  -3   5    2.06    0.39
  -3   3  -5    3.27    0.55
  -3   3  -5    2.80    0.56
   3  -3   5    3.16    0.44
   3  -3   5    3.65    0.75
  -4   3  -5   36.59    1.43
  -4   3  -5   35.06    1.61
   4  -3   5   32.27    1.86
  -5   3  -5    5.00    0.75
  -5   3  -5    6.47    0.96
   5  -3   5    4.81    0.99
  -6   3  -5    6.42    1.01
   6  -3   5    8.17    0.99
   6  -3   5    6.16    1.12
  -7   3  -5    1.23    0.71
   7  -3   5    0.70    0.74
  -8   3  -5   28.50    1.95
   8  -3   5   30.45    2.58
  -9   3  -5    8.83    1.44
   9  -3   5   11.09    1.79
   9   2  -5    5.06    1.22
   8   2  -5   11.16    1.47
  -8  -2   5   10.71    1.55
   7   2  -5    1.67    0.80
  -7  -2   5    1.45    0.81
   6   2  -5    1.25    0.72
  -6  -2   5    3.90    0.92
  -6  -2   5    2.62    0.62
   5   2  -5   78.36    2.60
   5   2  -5   79.44    2.22
  -5  -2   5   78.32    2.23
  -5  -2   5   76.47    2.68
   4   2  -5   96.48    2.28
   4   2  -5   92.71    2.74
  -4  -2   5   96.54    2.37
  -4  -2   5   96.34    2.83
   3   2  -5   11.00    1.00
   3   2  -5   13.04    0.79
  -3  -2   5   12.00    0.91
  -3  -2   5   11.37    1.05
   2   2  -5  156.78    2.99
   2   2  -5  163.80    3.39
  -2  -2   5  159.16    3.42
  -2  -2   5  162.05    2.96
   1   2  -5    1.44    0.40
   1   2  -5    0.77    0.30
  -1  -2   5    1.09    0.39
  -1  -2   5    0.99    0.38
   0   2  -5   57.36    1.44
   0   2  -5   55.97    1.57
   0  -2   5   56.55    1.80
   0  -2   5   55.37    1.67
  -1   2  -5   17.68    0.85
  -1   2  -5   16.72    0.84
   1  -2   5   18.94    0.92
   1  -2   5   17.55    1.11
  -2   2  -5    1.80    0.42
  -2   2  -5    1.38    0.36
   2  -2   5    1.69    0.53
   2  -2   5    1.77    0.40
  -3   2  -5    8.25    0.68
  -3   2  -5    7.83    0.80
   3  -2   5    7.40    0.93
   3  -2   5    6.98    0.66
  -4   2  -5    7.31    0.89
  -4   2  -5    8.61    0.74
   4  -2   5    8.21    0.74
   4  -2   5    8.64    1.10
  -5   2  -5   57.53    1.78
  -5   2  -5   56.65    2.16
   5  -2   5   55.37    2.47
  -6   2  -5   10.25    1.17
   6  -2   5   11.35    1.39
  -7   2  -5    6.65    1.12
   7  -2   5    4.88    1.15
  -8   2  -5   22.63    1.98
   8  -2   5   26.33    2.42
  -9   2  -5   20.59    2.01
   9  -2   5   19.22    2.23
   9   1  -5    2.41    1.00
   8   1  -5   12.03    1.49
  -8  -1   5   15.90    1.76
   7   1  -5    0.35    0.70
  -7  -1   5    0.77    0.61
  -7  -1   5    0.76    0.68
   6   1  -5    6.32    1.00
  -6  -1   5    6.75    0.94
  -6  -1   5    6.96    1.06
   5   1  -5   26.69    1.55
  -5  -1   5   31.13    1.74
  -5  -1   5   26.72    1.41
   4   1  -5   30.52    1.11
   4   1  -5   29.14    1.50
  -4  -1   5   31.21    1.55
  -4  -1   5   32.09    1.45
   3   1  -5    2.86    0.60
   3   1  -5    4.31    0.65
   3   1  -5    4.46    0.44
  -3  -1   5    2.16    0.55
   2   1  -5   18.13    0.95
   2   1  -5   17.51    1.02
  -2  -1   5   16.05    0.66
  -2  -1   5   16.91    1.04
   1   1  -5   10.59    0.77
   1   1  -5    9.56    0.72
  -1  -1   5    9.49    0.84
  -1  -1   5    9.25    0.69
   0   1  -5   69.22    1.68
   0   1  -5   73.09    1.74
   0  -1   5   69.76    1.90
   0  -1   5   71.33    1.83
  -1   1  -5    1.49    0.36
  -1   1  -5    2.02    0.36
   1  -1   5    2.02    0.47
   1  -1   5    1.74    0.43
  -2   1  -5   14.00    0.68
  -2   1  -5   14.18    0.85
   2  -1   5   13.76    1.04
   2  -1   5   15.88    0.88
  -3   1  -5    2.58    0.54
  -3   1  -5    3.41    0.42
   3  -1   5    1.60    0.57
   3  -1   5    2.22    0.46
  -4   1  -5  202.07    4.17
  -4   1  -5  209.78    3.52
   4  -1   5  212.87    3.98
   4  -1   5  210.79    4.79
  -5   1  -5  236.06    4.86
  -5   1  -5  238.58    4.46
   5  -1   5  238.66    5.47
  -6   1  -5   42.43    2.01
   6  -1   5   43.70    2.30
  -7   1  -5    6.43    1.11
   7  -1   5    6.47    1.28
  -8   1  -5   37.41    2.14
   8  -1   5   39.82    2.60
  -9   1  -5    0.18    0.72
   9  -1   5    1.07    1.07
   9   0  -5    6.58    1.30
   8   0  -5    0.72    0.76
  -8   0   5    0.41    0.75
  -8   0   5    1.56    0.75
   7   0  -5    5.46    1.07
  -7   0   5    4.91    0.97
  -7   0   5    5.05    1.05
   6   0  -5    7.85    1.12
  -6   0   5    8.11    1.12
  -6   0   5    7.01    1.00
   5   0  -5   20.31    1.39
  -5   0   5   17.20    1.41
  -5   0   5   24.12    1.52
   4   0  -5    0.38    0.46
  -4   0   5    0.26    0.46
  -4   0   5    0.48    0.42
   3   0  -5    4.04    0.31
   3   0  -5    3.41    0.61
   3   0  -5    1.76    0.51
  -3   0   5    4.25    0.69
   2   0  -5    4.76    0.64
   2   0  -5    2.42    0.49
  -2   0   5    1.83    0.51
   1   0  -5  126.64    2.57
   1   0  -5  124.24    2.56
  -1   0   5  123.41    2.19
  -1   0   5  125.67    2.83
   0   0  -5    8.33    0.60
   0   0  -5    9.16    0.72
   0   0   5    8.24    0.63
   0   0   5    7.81    0.75
  -1   0  -5   83.85    2.03
  -1   0  -5   82.36    1.68
   1   0   5   83.79    2.07
   1   0   5   87.81    2.21
  -2   0  -5  108.34    2.44
  -2   0  -5  108.46    1.90
   2   0   5  107.54    2.56
   2   0   5  108.31    2.68
  -3   0  -5  135.06    3.04
  -3   0  -5  137.81    2.27
   3   0   5  144.58    3.42
   3   0   5  137.09    3.10
  -4   0  -5  337.93    5.86
  -4   0  -5  333.10    5.82
   4   0   5  325.56    6.43
  -5   0  -5   35.78    1.61
  -5   0  -5   34.23    1.70
   5   0   5   30.05    1.95
  -6   0  -5   16.15    1.34
  -6   0  -5   16.81    1.47
   6   0   5   17.44    1.71
  -7   0  -5    4.70    0.95
   7   0   5    5.66    1.26
  -8   0  -5    1.19    0.76
   8   0   5   -0.23    0.82
  -9   0  -5    0.31    0.78
   9   0   5    2.12    1.17
   9  -1  -5    8.81    1.51
  -9   1   5    8.56    1.42
   8  -1  -5    2.81    0.97
  -8   1   5    3.77    1.00
   7  -1  -5    6.48    1.11
  -7   1   5    7.08    1.11
  -7   1   5    6.97    1.14
   6  -1  -5    1.86    0.70
  -6   1   5    4.90    0.93
  -6   1   5    4.69    0.92
   5  -1  -5   30.21    1.66
  -5   1   5   32.65    1.70
  -5   1   5   32.69    1.66
   4  -1  -5    5.06    0.81
  -4   1   5    7.04    0.91
  -4   1   5    7.27    0.98
   3  -1  -5   18.18    1.12
   3  -1  -5   17.80    1.21
  -3   1   5   16.71    1.10
   2  -1  -5  172.40    3.41
  -2   1   5  174.33    3.65
   1  -1  -5  192.65    3.59
   1  -1  -5  191.66    3.44
  -1   1   5  195.03    2.88
  -1   1   5  192.34    3.84
   0  -1  -5   47.32    1.46
   0  -1  -5   45.70    1.25
   0   1   5   47.05    1.62
   0   1   5   45.16    1.22
  -1  -1  -5   71.53    1.87
  -1  -1  -5   70.88    1.45
   1   1   5   72.16    1.87
   1   1   5   70.65    2.07
  -2  -1  -5  223.74    3.19
  -2  -1  -5  220.44    4.06
   2   1   5  228.81    4.43
   2   1   5  229.24    4.35
  -3  -1  -5  102.78    2.52
  -3  -1  -5   97.32    1.48
  -3  -1  -5  101.22    2.69
   3   1   5  100.28    2.81
  -4  -1  -5   90.48    2.51
  -4  -1  -5   83.94    2.53
   4   1   5   83.30    2.82
  -5  -1  -5   28.28    1.57
  -5  -1  -5   29.40    1.60
   5   1   5   31.18    1.89
  -6  -1  -5    8.06    1.09
  -6  -1  -5    5.77    0.92
   6   1   5    6.30    1.16
  -7  -1  -5    0.56    0.66
   7   1   5   -0.62    0.67
  -8  -1  -5    0.54    0.69
   8   1   5   -0.06    0.87
  -9  -1  -5    5.54    1.22
   9   1   5    5.04    1.43
   9  -2  -5   22.75    2.21
  -9   2   5   16.22    1.85
   8  -2  -5    2.57    0.98
  -8   2   5    3.24    0.98
   7  -2  -5    2.03    0.85
  -7   2   5    2.09    0.83
   6  -2  -5   15.55    1.51
  -6   2   5   18.29    1.63
  -6   2   5   18.36    1.55
   5  -2  -5    4.09    0.87
  -5   2   5    2.74    0.76
  -5   2   5    3.34    0.80
   4  -2  -5   13.13    1.22
  -4   2   5   11.93    1.22
  -4   2   5   14.11    1.25
   3  -2  -5   55.12    2.07
   3  -2  -5   57.31    1.94
  -3   2   5   55.39    1.97
   2  -2  -5   88.32    2.27
   2  -2  -5   87.19    2.41
  -2   2   5   92.74    2.51
   1  -2  -5  111.01    2.40
   1  -2  -5  106.79    2.55
  -1   2   5  116.38    2.82
  -1   2   5  107.77    1.84
   0  -2  -5   97.71    2.00
   0  -2  -5   96.03    2.30
   0   2   5   97.02    2.03
  -1  -2  -5  202.20    3.78
  -1  -2  -5  207.33    3.13
   1   2   5  208.34    4.20
   1   2   5  202.93    3.80
  -2  -2  -5   62.71    1.86
  -2  -2  -5   63.58    2.09
   2   2   5   60.41    1.99
  -3  -2  -5    7.83    0.96
  -3  -2  -5    7.74    0.84
   3   2   5    6.47    0.92
  -4  -2  -5   22.95    1.28
  -4  -2  -5   22.85    1.40
   4   2   5   21.91    1.53
  -5  -2  -5   12.45    1.19
  -5  -2  -5   14.37    1.39
   5   2   5   14.37    1.53
  -6  -2  -5   15.12    1.51
  -6  -2  -5   14.71    1.37
   6   2   5   15.40    1.64
  -7  -2  -5    1.79    0.74
  -7  -2  -5    1.59    0.81
   7   2   5    1.12    0.85
  -8  -2  -5    1.91    0.86
   8   2   5    0.33    0.89
  -9  -2  -5    1.13    0.87
   9  -3  -5    2.70    1.09
  -9   3   5    4.30    1.17
   8  -3  -5    1.08    0.79
  -8   3   5    5.84    1.25
   7  -3  -5    0.38    0.73
  -7   3   5    0.33    0.65
   6  -3  -5    9.54    1.30
  -6   3   5   12.64    1.30
  -6   3   5   10.82    1.33
   5  -3  -5    1.05    0.62
  -5   3   5    0.01    0.55
  -5   3   5    0.87    0.60
   4  -3  -5    0.45    0.50
  -4   3   5    0.71    0.53
  -4   3   5   -0.36    0.47
   3  -3  -5  159.87    3.57
  -3   3   5  147.82    3.50
   2  -3  -5  287.80    5.31
   2  -3  -5  285.96    5.04
  -2   3   5  275.88    5.26
  -2   3   5  282.53    3.98
   1  -3  -5   73.05    2.11
   1  -3  -5   71.70    1.89
  -1   3   5   69.11    1.49
  -1   3   5   72.60    2.25
   0  -3  -5  180.62    3.57
   0  -3  -5  177.68    3.14
   0   3   5  181.61    3.91
   0   3   5  177.10    3.24
  -1  -3  -5   72.21    2.03
  -1  -3  -5   75.49    2.35
  -1  -3  -5   73.80    1.53
   1   3   5   75.13    2.03
  -2  -3  -5    8.89    0.85
  -2  -3  -5   12.59    1.17
   2   3   5   11.20    1.01
  -3  -3  -5   13.17    1.27
  -3  -3  -5   14.61    1.01
   3   3   5   16.48    1.37
  -4  -3  -5   -0.06    0.58
  -4  -3  -5    0.43    0.49
   4   3   5    1.59    0.69
  -5  -3  -5    3.48    0.88
  -5  -3  -5    3.87    0.79
   5   3   5    3.06    0.92
  -6  -3  -5    7.66    1.10
  -6  -3  -5    6.67    1.11
   6   3   5    7.25    1.28
  -7  -3  -5   36.82    2.16
  -7  -3  -5   36.01    1.93
   7   3   5   35.53    2.41
  -8  -3  -5    8.09    1.24
   8   3   5    7.71    1.51
   8  -4  -5    1.50    0.93
  -8   4   5    0.44    0.77
   7  -4  -5    7.01    1.29
  -7   4   5    6.34    1.25
   6  -4  -5    5.88    1.06
  -6   4   5    7.83    1.27
   5  -4  -5   10.53    1.27
  -5   4   5    9.78    1.12
  -5   4   5    9.86    1.27
   4  -4  -5    5.80    0.96
  -4   4   5    6.79    1.04
  -4   4   5    6.47    0.93
   3  -4  -5  157.83    3.75
   3  -4  -5  163.89    4.00
  -3   4   5  159.17    3.72
   2  -4  -5  199.67    4.27
   2  -4  -5  191.62    3.98
  -2   4   5  193.75    3.18
  -2   4   5  193.20    4.18
   1  -4  -5    1.11    0.47
   1  -4  -5    1.00    0.43
  -1   4   5    1.47    0.51
  -1   4   5    1.39    0.36
   0  -4  -5   59.00    1.89
   0  -4  -5   60.50    1.68
   0   4   5   59.37    1.71
   0   4   5   64.09    2.23
  -1  -4  -5    1.27    0.48
  -1  -4  -5    1.14    0.55
  -1  -4  -5    1.21    0.36
   1   4   5    0.25    0.41
  -2  -4  -5   15.25    1.35
  -2  -4  -5   18.62    1.13
   2   4   5   14.35    1.20
  -3  -4  -5   15.98    1.50
  -3  -4  -5   16.51    1.10
   3   4   5   13.83    1.28
  -4  -4  -5    0.29    0.45
  -4  -4  -5    0.98    0.61
   4   4   5    0.27    0.60
  -5  -4  -5   -1.09    0.54
  -5  -4  -5    0.32    0.50
   5   4   5    0.70    0.70
  -6  -4  -5    1.17    0.61
  -6  -4  -5    2.50    0.88
   6   4   5    1.60    0.97
  -7  -4  -5   25.40    2.19
  -7  -4  -5   19.90    1.67
   7   4   5   19.69    2.08
  -8  -4  -5   12.06    1.48
  -8  -4  -5    9.82    1.56
   8   4   5    9.67    1.66
   8  -5  -5    4.79    1.24
  -8   5   5    2.96    1.08
   7  -5  -5   13.49    1.66
  -7   5   5   14.73    1.73
   6  -5  -5   18.75    1.81
  -6   5   5   16.14    1.68
   5  -5  -5   12.72    1.44
  -5   5   5   12.66    1.25
  -5   5   5   14.75    1.53
   4  -5  -5    0.87    0.60
  -4   5   5    0.40    0.54
  -4   5   5    0.27    0.56
   3  -5  -5  142.98    3.62
   3  -5  -5  133.90    3.70
  -3   5   5  136.07    3.41
   2  -5  -5    3.65    0.54
   2  -5  -5    3.49    0.77
   2  -5  -5    3.38    0.70
  -2   5   5    4.78    0.80
   1  -5  -5    0.09    0.43
   1  -5  -5    0.60    0.47
  -1   5   5    0.09    0.48
  -1   5   5    0.63    0.40
   0  -5  -5    1.59    0.48
   0  -5  -5    1.68    0.55
   0  -5  -5    2.22    0.65
   0   5   5    1.70    0.52
  -1  -5  -5   24.55    1.29
  -1  -5  -5   28.34    1.58
  -1  -5  -5   24.09    1.03
   1   5   5   26.61    1.39
  -2  -5  -5    4.66    0.92
  -2  -5  -5    3.83    0.72
   2   5   5    4.88    0.85
  -3  -5  -5    0.05    0.55
  -3  -5  -5    0.35    0.44
   3   5   5    0.35    0.63
  -4  -5  -5   37.85    2.04
  -4  -5  -5   36.13    1.63
   4   5   5   39.49    2.17
  -5  -5  -5    6.96    1.21
  -5  -5  -5    9.98    1.12
   5   5   5    8.43    1.32
  -6  -5  -5   14.63    1.36
  -6  -5  -5   15.22    1.75
   6   5   5   14.83    1.79
  -7  -5  -5   22.58    2.24
  -7  -5  -5   20.72    1.73
   7   5   5   21.99    2.21
  -8  -5  -5   -0.17    0.92
   8   5   5    0.34    0.98
   8  -6  -5    0.09    0.84
  -8   6   5    0.08    0.90
   7  -6  -5   14.08    1.71
  -7   6   5   17.02    1.88
   6  -6  -5   24.96    2.11
  -6   6   5   29.06    1.99
   5  -6  -5    6.33    1.11
  -5   6   5    7.68    1.20
   4  -6  -5    0.73    0.64
  -4   6   5    1.24    0.62
  -4   6   5    1.45    0.72
   3  -6  -5   47.16    2.10
   3  -6  -5   47.89    2.19
  -3   6   5   47.91    2.04
   2  -6  -5    7.57    1.08
   2  -6  -5    8.72    1.06
  -2   6   5    6.46    0.93
   1  -6  -5   43.97    1.77
   1  -6  -5   43.98    1.90
  -1   6   5   42.92    1.96
  -1   6   5   43.43    1.65
   0  -6  -5    9.49    0.93
   0  -6  -5    9.10    1.04
   0  -6  -5    8.01    1.08
   0   6   5    7.63    0.90
  -1  -6  -5    3.73    0.72
  -1  -6  -5    3.14    0.80
   1   6   5    4.18    0.81
  -2  -6  -5    4.36    0.94
  -2  -6  -5    3.46    0.72
   2   6   5    3.51    0.80
  -3  -6  -5   48.84    2.34
  -3  -6  -5   51.80    1.96
   3   6   5   50.27    2.33
  -4  -6  -5  107.56    2.95
  -4  -6  -5  105.19    3.55
   4   6   5  105.80    3.54
  -5  -6  -5   42.12    1.88
  -5  -6  -5   39.91    2.36
   5   6   5   43.18    2.44
  -6  -6  -5   21.26    2.14
  -6  -6  -5   20.49    1.62
   6   6   5   16.53    1.90
  -7  -6  -5    0.96    0.94
   7   6   5   -0.30    0.97
   7  -7  -5    8.68    1.49
  -7   7   5    9.68    1.52
   6  -7  -5   33.53    2.19
  -6   7   5   33.06    2.20
   5  -7  -5    6.87    1.21
  -5   7   5    5.51    1.14
   4  -7  -5    7.84    1.23
  -4   7   5    8.11    1.19
   3  -7  -5   -0.14    0.56
   3  -7  -5    0.41    0.63
  -3   7   5   -0.72    0.48
   2  -7  -5   27.80    1.64
   2  -7  -5   29.60    1.74
  -2   7   5   32.89    1.71
   1  -7  -5    4.19    0.83
   1  -7  -5    5.37    0.93
  -1   7   5    4.41    0.86
  -1   7   5    4.27    0.77
   0  -7  -5    7.17    0.97
   0  -7  -5    7.59    0.91
   0  -7  -5    7.61    1.10
   0   7   5    6.37    0.96
  -1  -7  -5  183.07    4.64
  -1  -7  -5  187.57    4.17
   1   7   5  189.95    4.46
  -2  -7  -5   18.96    1.75
  -2  -7  -5   21.11    1.36
   2   7   5   21.08    1.74
  -3  -7  -5  119.03    3.78
  -3  -7  -5  117.76    3.13
   3   7   5  112.23    3.60
  -4  -7  -5   45.15    1.94
  -4  -7  -5   49.50    2.50
   4   7   5   51.01    2.62
  -5  -7  -5    1.35    0.64
  -5  -7  -5    0.91    0.85
   5   7   5    1.08    0.86
  -6  -7  -5    3.53    1.11
   6   7   5    3.84    1.18
  -7  -7  -5    0.49    0.96
   7   7   5   -0.23    0.88
   7  -8  -5    9.20    1.55
  -7   8   5    9.14    1.51
   6  -8  -5    0.39    0.78
  -6   8   5    0.72    0.78
   5  -8  -5    0.75    0.79
  -5   8   5    0.52    0.71
   4  -8  -5    5.98    1.12
  -4   8   5   11.71    1.42
   3  -8  -5    5.90    1.08
   3  -8  -5    6.34    1.11
  -3   8   5    5.71    0.97
  -3   8   5    5.71    1.03
   2  -8  -5   -0.04    0.58
   2  -8  -5    0.52    0.61
  -2   8   5    0.17    0.55
   1  -8  -5   36.22    1.79
   1  -8  -5   31.09    1.81
  -1   8   5   30.00    1.79
  -1   8   5   35.75    1.85
   0  -8  -5   94.69    3.18
   0  -8  -5   91.08    2.92
   0   8   5   89.59    2.97
  -1  -8  -5    1.03    0.69
  -1  -8  -5    1.60    0.66
   1   8   5    1.87    0.77
  -2  -8  -5   37.34    1.80
  -2  -8  -5   36.97    2.11
   2   8   5   34.46    2.10
  -3  -8  -5  109.89    3.80
  -3  -8  -5  118.43    3.24
   3   8   5  114.80    3.82
  -4  -8  -5    2.62    0.95
   4   8   5    2.51    1.00
  -5  -8  -5    2.46    1.01
   5   8   5    1.42    1.00
  -6  -8  -5   -0.57    0.72
   6   8   5   -0.98    0.94
   6  -9  -5    3.05    1.11
  -6   9   5    2.81    1.07
   5  -9  -5    0.48    0.83
  -5   9   5    0.53    0.76
   4  -9  -5   17.63    1.81
  -4   9   5   11.35    1.45
   3  -9  -5   10.46    1.37
  -3   9   5   12.72    1.46
   2  -9  -5   16.62    1.59
   2  -9  -5   17.52    1.69
  -2   9   5   17.65    1.61
   1  -9  -5   66.85    2.65
   1  -9  -5   68.93    2.64
  -1   9   5   70.30    2.71
  -1   9   5   70.39    2.79
   0  -9  -5   73.76    2.69
   0  -9  -5   64.17    2.74
   0   9   5   69.37    2.77
  -1  -9  -5   10.92    1.23
  -1  -9  -5   10.38    1.42
   1   9   5   10.32    1.37
  -2  -9  -5    5.67    0.99
  -2  -9  -5    2.73    0.95
   2   9   5    3.76    1.05
  -3  -9  -5    0.52    0.74
   3   9   5    1.13    0.92
  -4  -9  -5    1.87    0.95
   4   9   5    1.28    0.96
  -5  -9  -5   10.67    1.65
   5   9   5    9.60    1.68
   5 -10  -5    0.93    0.84
  -5  10   5    2.35    0.96
   4 -10  -5   17.08    1.87
  -4  10   5   16.90    1.79
   3 -10  -5   70.20    3.01
  -3  10   5   69.44    2.89
   2 -10  -5   10.43    1.42
   2 -10  -5    8.12    1.25
  -2  10   5    6.05    1.10
   1 -10  -5   57.72    2.57
  -1  10   5   50.12    2.47
   0 -10  -5   12.28    1.39
   0 -10  -5    9.59    1.42
   0  10   5   10.93    1.47
  -1 -10  -5    7.82    1.32
   1  10   5    9.53    1.45
  -2 -10  -5    6.66    1.29
   2  10   5    6.49    1.36
  -3 -10  -5    5.78    1.26
   3  10   5    5.41    1.34
  -4 -10  -5    0.70    0.88
   4  10   5    0.91    1.06
   4 -11  -5   43.16    2.62
  -4  11   5   46.03    2.53
   3 -11  -5    7.52    1.44
  -3  11   5    7.97    1.35
   2 -11  -5   10.40    1.45
  -2  11   5    7.24    1.27
  -1  11   5   23.13    2.03
   0 -11  -5    0.45    0.81
   0  11   5    0.27    0.88
  -1 -11  -5    2.77    1.02
   1  11   5    2.85    1.16
  -2 -11  -5    2.48    1.04
   2  11   5    1.31    0.99
  -3 -11  -5   -0.36    0.79
   3  11   5    1.03    1.12
   0 -12  -5    0.06    0.88
  -1 -12  -5    8.52    1.54
   1  12   5    6.55    1.50
   2  12  -6    1.48    0.96
  -2 -12   6    0.63    0.83
   1  12  -6    0.05    0.76
  -1 -12   6    0.74    0.99
   0  12  -6   17.24    1.86
   0 -12   6   18.17    2.24
  -1  12  -6   -0.17    0.83
   1 -12   6    0.26    0.99
  -2  12  -6    0.09    0.79
   2 -12   6    0.57    0.96
  -3  12  -6   -0.34    0.87
   3  11  -6    0.23    0.83
  -3 -11   6   -0.33    0.87
  -3 -11   6    0.87    0.89
   2  11  -6    1.18    0.91
  -2 -11   6    2.20    0.95
  -2 -11   6    2.77    1.15
   1  11  -6   14.49    1.71
  -1 -11   6   15.57    1.96
   0  11  -6   -0.13    0.74
   0 -11   6   -0.10    0.85
  -1  11  -6   16.42    1.76
   1 -11   6   15.23    2.02
  -2  11  -6   21.00    2.02
   2 -11   6   18.74    2.20
  -3  11  -6    6.50    1.33
   3 -11   6    7.27    1.51
  -4  11  -6   13.83    1.78
   4 -11   6   17.22    2.23
   5  10  -6    0.97    0.93
   5  10  -6    0.13    0.96
  -5 -10   6    0.39    0.79
   4  10  -6    0.86    0.86
   4  10  -6   -0.30    0.79
  -4 -10   6    1.33    0.88
   3  10  -6    7.49    1.25
  -3 -10   6    7.65    1.41
  -3 -10   6    7.91    1.31
   2  10  -6   15.00    1.64
  -2 -10   6   13.94    1.58
  -2 -10   6   13.39    1.75
   1  10  -6    0.11    0.65
  -1 -10   6    2.09    0.82
  -1 -10   6    2.52    1.01
   0  10  -6    5.22    1.04
   0 -10   6    8.04    1.45
  -1  10  -6   47.59    2.45
   1 -10   6   50.07    2.96
  -2  10  -6   34.31    2.12
   2 -10   6   36.32    2.57
  -3  10  -6   53.01    2.59
   3 -10   6   46.31    2.95
  -4  10  -6   11.10    1.53
   4 -10   6    9.66    1.71
  -5  10  -6   -0.62    0.78
   5 -10   6    1.35    1.07
   5   9  -6    2.89    1.10
   5   9  -6    2.25    1.00
  -5  -9   6    2.48    0.97
   4   9  -6    2.90    0.97
   4   9  -6    3.68    1.12
  -4  -9   6    3.74    0.99
   3   9  -6    1.58    0.78
  -3  -9   6    0.06    0.59
  -3  -9   6    0.86    0.79
   2   9  -6   57.06    2.50
  -2  -9   6   57.64    2.48
  -2  -9   6   54.53    2.78
   1   9  -6   36.16    1.98
  -1  -9   6   36.33    2.38
  -1  -9   6   40.28    1.98
   0   9  -6   37.51    2.01
   0  -9   6   41.70    1.87
   0  -9   6   43.12    2.52
  -1   9  -6   57.03    2.49
   1  -9   6   58.04    2.96
  -2   9  -6   45.23    2.25
   2  -9   6   40.87    2.57
  -3   9  -6    0.39    0.69
   3  -9   6    0.24    0.82
  -4   9  -6    0.92    0.81
   4  -9   6    1.72    0.95
  -5   9  -6    0.52    0.80
   5  -9   6    0.19    0.93
  -6   9  -6   12.83    1.62
  -6   9  -6   18.36    1.95
   6  -9   6   20.67    2.40
   6   8  -6    0.49    0.78
  -6  -8   6    0.09    0.77
   5   8  -6    0.70    0.82
   5   8  -6    1.97    0.92
  -5  -8   6    0.44    0.69
   4   8  -6    1.09    0.81
   4   8  -6    1.36    0.74
  -4  -8   6    1.76    0.76
  -4  -8   6    1.47    0.80
   3   8  -6   50.36    2.32
  -3  -8   6   46.45    2.26
  -3  -8   6   47.29    2.37
   2   8  -6   78.33    2.81
  -2  -8   6   80.26    3.13
  -2  -8   6   83.69    2.85
   1   8  -6   76.26    2.71
  -1  -8   6   76.37    2.61
  -1  -8   6   78.85    3.19
   0   8  -6    8.94    1.12
   0  -8   6    7.35    1.26
  -1   8  -6   21.82    1.51
   1  -8   6   21.82    2.03
  -2   8  -6   -0.04    0.53
   2  -8   6    0.21    0.71
  -3   8  -6   23.20    1.67
   3  -8   6   22.50    2.14
  -4   8  -6    3.46    0.90
  -4   8  -6    2.38    0.79
   4  -8   6    2.14    0.93
  -5   8  -6   17.51    1.62
  -5   8  -6   15.71    1.62
   5  -8   6   22.41    2.29
  -6   8  -6   -0.51    0.71
  -6   8  -6   -0.80    0.68
   6  -8   6    0.11    0.94
  -7   8  -6    6.16    1.26
  -7   8  -6    5.45    1.29
   7  -8   6    8.83    1.78
   7   7  -6    0.99    0.95
  -7  -7   6   -0.34    0.72
   6   7  -6   10.03    1.41
  -6  -7   6    9.86    1.46
   5   7  -6    0.98    0.78
   5   7  -6    1.07    0.78
  -5  -7   6    1.93    0.80
   4   7  -6    8.96    1.24
   4   7  -6    8.12    1.20
  -4  -7   6    9.58    1.28
   3   7  -6   35.01    1.89
  -3  -7   6   35.72    1.89
  -3  -7   6   38.78    1.98
   2   7  -6   25.96    1.58
  -2  -7   6   23.41    1.62
  -2  -7   6   21.17    1.48
   1   7  -6   11.33    1.21
  -1  -7   6    8.89    1.29
  -1  -7   6    8.85    1.05
   0   7  -6    0.83    0.59
   0  -7   6    0.08    0.43
   0  -7   6   -0.96    0.56
  -1   7  -6    1.34    0.59
   1  -7   6    3.16    0.98
   1  -7   6    2.13    0.55
  -2   7  -6   55.36    2.22
  -2   7  -6   55.79    1.81
   2  -7   6   53.96    2.76
  -3   7  -6    0.96    0.55
  -3   7  -6    0.84    0.65
   3  -7   6    1.39    0.87
  -4   7  -6   30.84    1.79
  -4   7  -6   33.67    1.74
   4  -7   6   32.23    2.26
  -5   7  -6    1.11    0.72
  -5   7  -6   -0.30    0.55
   5  -7   6    1.26    0.86
  -6   7  -6    4.33    1.07
  -6   7  -6    2.95    0.90
   6  -7   6    2.31    1.04
  -7   7  -6   18.92    1.92
  -7   7  -6   19.40    1.89
   7  -7   6   18.35    2.19
   7   6  -6    3.01    1.05
  -7  -6   6    2.86    1.05
   6   6  -6   15.53    1.69
  -6  -6   6   13.02    1.58
   5   6  -6    0.17    0.68
   5   6  -6    1.50    0.78
  -5  -6   6   -0.32    0.61
   4   6  -6    3.25    0.85
   4   6  -6    2.37    0.76
  -4  -6   6    2.31    0.77
   3   6  -6   27.08    1.63
  -3  -6   6   28.35    1.63
  -3  -6   6   31.03    1.75
   2   6  -6   19.93    1.44
  -2  -6   6   25.97    1.55
  -2  -6   6   24.03    1.58
   1   6  -6    4.22    0.80
  -1  -6   6    4.27    0.90
  -1  -6   6    5.20    0.83
   0   6  -6   37.05    1.67
   0  -6   6   34.96    1.55
   0  -6   6   31.66    1.91
  -1   6  -6    0.68    0.54
  -1   6  -6    0.78    0.38
   1  -6   6    1.26    0.76
   1  -6   6    0.18    0.40
  -2   6  -6   31.53    1.58
  -2   6  -6   33.41    1.38
   2  -6   6   33.62    2.15
  -3   6  -6    0.25    0.49
  -3   6  -6    0.23    0.47
   3  -6   6    0.15    0.73
  -4   6  -6   98.99    2.86
  -4   6  -6   96.63    2.96
   4  -6   6   93.93    3.58
  -5   6  -6   90.69    2.96
  -5   6  -6   91.24    2.97
   5  -6   6   88.89    3.54
  -6   6  -6   40.62    2.09
  -6   6  -6   41.17    2.15
   6  -6   6   39.30    2.57
  -7   6  -6   34.80    2.17
   7  -6   6   31.61    2.41
  -8   6  -6    6.85    1.40
   8  -6   6    7.25    1.63
   8   5  -6    0.68    0.93
  -8  -5   6    0.38    0.95
   7   5  -6   14.27    1.61
  -7  -5   6   12.70    1.67
   6   5  -6   61.73    2.70
  -6  -5   6   55.43    2.67
   5   5  -6    1.74    0.67
   5   5  -6    1.43    0.74
  -5  -5   6    1.07    0.69
   4   5  -6    9.15    1.18
   4   5  -6   11.84    1.17
  -4  -5   6   12.20    1.34
   3   5  -6    3.01    0.76
  -3  -5   6    6.12    0.95
  -3  -5   6    5.16    0.81
   2   5  -6    1.07    0.54
  -2  -5   6    0.77    0.55
  -2  -5   6   -0.01    0.50
   1   5  -6   38.81    1.67
  -1  -5   6   38.49    1.93
  -1  -5   6   38.68    1.70
   0   5  -6    3.70    0.48
   0   5  -6    4.36    0.75
   0  -5   6    2.40    0.58
   0  -5   6    3.87    0.89
  -1   5  -6    1.25    0.40
  -1   5  -6    0.72    0.46
   1  -5   6    0.45    0.42
   1  -5   6    0.93    0.68
  -2   5  -6   58.22    1.99
  -2   5  -6   53.53    1.71
   2  -5   6   54.75    1.63
   2  -5   6   54.61    2.52
  -3   5  -6   56.87    1.95
  -3   5  -6   55.71    2.00
   3  -5   6   58.56    2.56
  -4   5  -6   90.70    2.70
  -4   5  -6   96.75    2.78
   4  -5   6   88.67    3.28
  -5   5  -6   73.23    2.50
  -5   5  -6   72.41    2.56
   5  -5   6   73.36    3.10
  -6   5  -6   18.80    1.56
  -6   5  -6   21.09    1.78
   6  -5   6   15.43    1.84
  -7   5  -6   13.83    1.61
   7  -5   6   13.14    1.77
  -8   5  -6    2.45    0.99
   8  -5   6    3.57    1.26
   8   4  -6    0.77    0.86
  -8  -4   6    0.22    0.88
   7   4  -6    7.29    1.21
  -7  -4   6    8.65    1.37
   6   4  -6   15.88    1.59
  -6  -4   6   18.90    1.80
   5   4  -6   -0.02    0.55
  -5  -4   6    0.46    0.62
   4   4  -6   19.24    1.57
   4   4  -6   21.45    1.32
  -4  -4   6   20.52    1.44
   3   4  -6    6.17    0.93
  -3  -4   6    6.65    0.80
  -3  -4   6    6.96    0.99
   2   4  -6    0.90    0.52
   2   4  -6    1.00    0.38
  -2  -4   6    1.49    0.57
  -2  -4   6    0.88    0.50
   1   4  -6    5.48    0.78
   1   4  -6    6.74    0.58
  -1  -4   6    6.50    0.81
  -1  -4   6    6.15    0.86
   0   4  -6   91.24    2.43
   0   4  -6   93.53    1.99
   0  -4   6   90.68    2.87
   0  -4   6   92.84    2.43
  -1   4  -6  114.71    2.43
  -1   4  -6  114.18    2.73
   1  -4   6  114.51    3.31
   1  -4   6  110.24    2.58
  -2   4  -6   38.28    1.44
  -2   4  -6   33.18    1.45
   2  -4   6   37.30    1.35
   2  -4   6   38.95    1.93
  -3   4  -6   69.84    2.11
  -3   4  -6   66.88    2.08
   3  -4   6   68.61    1.75
   3  -4   6   63.84    2.59
  -4   4  -6   85.17    2.61
  -4   4  -6   83.82    2.43
   4  -4   6   86.59    3.11
  -5   4  -6   21.94    1.33
  -5   4  -6   22.57    1.47
   5  -4   6   23.29    1.74
  -6   4  -6    7.96    1.17
   6  -4   6    7.00    1.26
  -7   4  -6    4.24    1.01
   7  -4   6    5.40    1.23
  -8   4  -6    1.31    0.82
   8  -4   6    0.35    1.01
   8   3  -6    1.74    0.93
  -8  -3   6    0.16    0.82
   7   3  -6   10.12    1.38
  -7  -3   6   12.52    1.60
   6   3  -6    0.19    0.62
  -6  -3   6    2.42    0.83
   5   3  -6   27.44    1.68
  -5  -3   6   29.24    1.79
   4   3  -6    0.82    0.48
   4   3  -6    0.73    0.58
  -4  -3   6    0.63    0.61
   3   3  -6   29.47    1.58
   3   3  -6   27.28    1.17
  -3  -3   6   26.03    1.18
  -3  -3   6   26.86    1.54
   2   3  -6    0.26    0.33
   2   3  -6    0.42    0.45
  -2  -3   6   -0.02    0.41
  -2  -3   6    0.96    0.44
   1   3  -6   63.98    1.99
   1   3  -6   64.17    1.61
  -1  -3   6   67.94    2.09
  -1  -3   6   59.54    1.96
   0   3  -6  404.05    5.99
   0   3  -6  400.48    6.46
   0  -3   6  397.69    7.10
   0  -3   6  408.30    6.62
  -1   3  -6  146.10    2.90
  -1   3  -6  149.50    3.09
   1  -3   6  145.70    3.61
   1  -3   6  145.23    3.08
  -2   3  -6    0.36    0.35
  -2   3  -6    1.07    0.45
   2  -3   6    0.71    0.53
   2  -3   6    0.21    0.35
  -3   3  -6   87.34    2.39
  -3   3  -6   90.20    2.22
   3  -3   6   86.27    2.82
   3  -3   6   86.75    2.10
  -4   3  -6   15.29    1.27
  -4   3  -6   16.40    1.01
   4  -3   6   13.92    1.42
  -5   3  -6   14.07    1.11
  -5   3  -6   12.57    1.29
   5  -3   6   11.68    1.46
  -6   3  -6    0.11    0.53
   6  -3   6   -0.23    0.71
  -7   3  -6    1.03    0.74
   7  -3   6    1.38    0.97
  -8   3  -6   -0.05    0.66
   8  -3   6    0.03    0.98
   8   2  -6   -0.25    0.65
  -8  -2   6    0.01    0.80
   7   2  -6    5.81    1.16
  -7  -2   6    3.67    0.97
   6   2  -6    1.44    0.69
  -6  -2   6   -0.18    0.64
   5   2  -6    2.57    0.79
  -5  -2   6    3.08    0.65
  -5  -2   6    3.13    0.84
   4   2  -6   19.64    1.36
  -4  -2   6   16.80    1.44
  -4  -2   6   17.46    1.14
   3   2  -6   49.90    1.70
   3   2  -6   46.97    1.40
   3   2  -6   52.91    1.95
  -3  -2   6   49.26    1.95
   2   2  -6   31.34    1.27
   2   2  -6   31.02    1.44
  -2  -2   6   35.63    1.59
  -2  -2   6   30.61    1.14
   1   2  -6  213.06    3.72
   1   2  -6  218.01    4.09
  -1  -2   6  212.46    4.02
  -1  -2   6  216.14    4.24
   0   2  -6  375.32    5.95
   0   2  -6  372.19    5.70
   0  -2   6  373.41    6.23
   0  -2   6  370.89    6.41
  -1   2  -6   55.89    1.61
  -1   2  -6   54.65    1.62
   1  -2   6   51.60    1.69
   1  -2   6   57.00    1.97
  -2   2  -6    1.86    0.47
  -2   2  -6    1.98    0.42
   2  -2   6    2.06    0.50
   2  -2   6    2.01    0.62
  -3   2  -6    0.23    0.33
  -3   2  -6    1.05    0.50
   3  -2   6    0.60    0.56
   3  -2   6   -0.29    0.34
  -4   2  -6   41.46    1.76
  -4   2  -6   43.62    1.44
   4  -2   6   43.11    1.52
   4  -2   6   39.54    2.03
  -5   2  -6    5.23    0.88
   5  -2   6    4.56    0.98
  -6   2  -6    0.61    0.58
   6  -2   6    0.18    0.66
  -7   2  -6    1.46    0.76
   7  -2   6   -0.43    0.74
  -8   2  -6    1.13    0.75
   8  -2   6    0.13    0.85
   8   1  -6    1.98    0.94
  -8  -1   6    0.45    0.83
   7   1  -6    3.72    0.99
  -7  -1   6    6.84    1.23
   6   1  -6   10.72    1.27
  -6  -1   6    9.30    1.10
  -6  -1   6    8.89    1.25
   5   1  -6    0.76    0.57
  -5  -1   6    0.30    0.49
  -5  -1   6    0.61    0.59
   4   1  -6  113.55    3.14
  -4  -1   6  117.33    3.02
  -4  -1   6  122.10    3.30
   3   1  -6  132.75    3.27
   3   1  -6  135.10    3.17
  -3  -1   6  138.65    3.39
   2   1  -6  129.11    2.83
   2   1  -6  125.89    2.93
  -2  -1   6  124.15    2.23
  -2  -1   6  124.02    3.08
   1   1  -6   31.44    1.21
   1   1  -6   28.96    1.27
  -1  -1   6   28.29    1.36
  -1  -1   6   32.16    1.17
   0   1  -6   84.83    2.06
   0   1  -6   85.63    2.07
   0  -1   6   89.76    2.22
   0  -1   6   87.91    2.36
  -1   1  -6    0.87    0.32
  -1   1  -6    1.05    0.40
   1  -1   6    0.63    0.37
   1  -1   6    0.39    0.39
  -2   1  -6  121.68    2.37
  -2   1  -6  125.99    2.78
   2  -1   6  123.75    3.06
   2  -1   6  115.97    2.79
  -3   1  -6   21.79    1.26
  -3   1  -6   20.62    0.88
   3  -1   6   22.91    1.17
   3  -1   6   22.73    1.51
  -4   1  -6   31.08    1.54
   4  -1   6   32.21    1.91
   4  -1   6   30.79    1.37
  -5   1  -6   11.32    1.19
   5  -1   6   13.31    1.14
   5  -1   6   12.44    1.44
  -6   1  -6   15.35    1.44
   6  -1   6   12.32    1.55
  -7   1  -6   17.36    1.66
   7  -1   6   21.29    2.09
  -8   1  -6   10.12    1.46
   8  -1   6   11.60    1.79
   8   0  -6    4.80    1.13
  -8   0   6    8.10    1.26
  -8   0   6    6.10    1.24
   7   0  -6   20.64    1.82
  -7   0   6   24.98    1.84
  -7   0   6   19.93    1.72
   6   0  -6    5.19    1.01
  -6   0   6    3.96    0.97
  -6   0   6    6.81    1.01
   5   0  -6   11.25    1.23
  -5   0   6   10.99    1.25
  -5   0   6    9.96    1.14
   4   0  -6   87.10    2.68
  -4   0   6   94.23    2.77
  -4   0   6   89.11    2.78
   3   0  -6   31.44    1.47
   3   0  -6   33.89    1.59
  -3   0   6   30.91    1.61
   2   0  -6    9.85    0.93
   2   0  -6    8.48    0.88
  -2   0   6    9.33    0.98
   1   0  -6   50.72    1.59
   1   0  -6   52.28    1.63
  -1   0   6   50.07    1.31
  -1   0   6   50.27    1.79
   0   0  -6    5.53    0.59
   0   0  -6    6.15    0.68
   0   0   6    6.22    0.61
   0   0   6    5.26    0.72
  -1   0  -6   43.97    1.26
  -1   0  -6   46.49    1.54
   1   0   6   45.44    1.67
   1   0   6   45.30    1.57
  -2   0  -6   39.17    1.48
  -2   0  -6   35.88    1.03
   2   0   6   35.05    1.60
   2   0   6   40.16    1.58
  -3   0  -6   17.21    0.70
  -3   0  -6   17.95    1.12
   3   0   6   19.59    1.19
   3   0   6   18.34    1.33
  -4   0  -6   71.53    2.31
   4   0   6   70.47    2.26
   4   0   6   64.97    2.55
  -5   0  -6    1.52    0.60
  -5   0  -6    1.26    0.60
   5   0   6    0.21    0.75
  -6   0  -6   19.69    1.63
   6   0   6   19.33    1.90
  -7   0  -6   23.88    1.67
   7   0   6   25.98    2.30
  -8   0  -6   12.35    1.54
   8   0   6   12.26    1.84
  -9   1   6    4.94    1.18
   8  -1  -6    0.29    0.71
  -8   1   6   -0.35    0.71
   7  -1  -6   32.13    2.01
  -7   1   6   29.80    1.94
  -7   1   6   38.45    2.15
   6  -1  -6    0.48    0.66
  -6   1   6    1.90    0.76
  -6   1   6    1.00    0.70
   5  -1  -6   -0.24    0.54
  -5   1   6    1.03    0.62
  -5   1   6   -0.05    0.61
   4  -1  -6   61.92    2.32
   4  -1  -6   54.68    2.16
  -4   1   6   54.60    2.20
  -4   1   6   59.32    2.28
   3  -1  -6    1.76    0.57
   3  -1  -6    0.82    0.53
  -3   1   6    2.48    0.66
   2  -1  -6    0.31    0.36
   2  -1  -6   -0.46    0.36
  -2   1   6    0.95    0.49
   1  -1  -6    0.25    0.35
   1  -1  -6    0.58    0.34
  -1   1   6    0.06    0.27
  -1   1   6    0.10    0.39
   0  -1  -6    7.33    0.76
   0  -1  -6    8.67    0.69
   0   1   6    8.49    0.93
   0   1   6    7.66    0.63
  -1  -1  -6   70.30    1.58
  -1  -1  -6   69.13    1.98
   1   1   6   70.89    2.20
   1   1   6   70.78    1.95
  -2  -1  -6   13.81    0.96
  -2  -1  -6   15.98    0.62
   2   1   6   11.25    1.07
   2   1   6   13.87    1.13
  -3  -1  -6  125.64    3.03
   3   1   6  124.32    3.27
   3   1   6  129.01    3.34
  -4  -1  -6   33.89    1.59
  -4  -1  -6   32.16    1.68
   4   1   6   29.52    1.85
  -5  -1  -6  191.79    4.33
  -5  -1  -6  187.25    4.38
   5   1   6  186.79    4.84
  -6  -1  -6  101.75    3.14
  -6  -1  -6  104.31    3.21
   6   1   6  106.69    3.71
  -7  -1  -6    4.80    0.98
   7   1   6    5.35    1.28
  -8  -1  -6    1.90    0.87
   8   1   6   -0.39    0.90
   8  -2  -6   13.47    1.66
  -8   2   6   14.22    1.69
   7  -2  -6    7.42    1.23
  -7   2   6    9.24    1.38
  -7   2   6   13.09    1.48
   6  -2  -6    9.52    1.32
  -6   2   6    9.88    1.28
  -6   2   6    8.77    1.23
   5  -2  -6    3.16    0.78
  -5   2   6    3.53    0.84
  -5   2   6    3.85    0.86
   4  -2  -6    7.37    0.99
   4  -2  -6    8.67    1.15
  -4   2   6    4.05    0.85
   3  -2  -6   23.78    1.33
   3  -2  -6   26.11    1.50
  -3   2   6   22.23    1.39
   2  -2  -6   30.54    1.37
   2  -2  -6   34.01    1.55
  -2   2   6   31.91    1.59
   1  -2  -6  142.57    3.20
   1  -2  -6  141.21    2.95
  -1   2   6  139.99    2.34
  -1   2   6  138.36    3.42
   0  -2  -6   -0.05    0.33
   0  -2  -6    1.31    0.36
   0   2   6    0.74    0.46
   0   2   6    0.58    0.36
  -1  -2  -6   14.76    0.68
  -1  -2  -6   15.21    0.99
   1   2   6   16.26    1.04
   1   2   6   15.80    1.31
  -2  -2  -6  274.16    4.99
   2   2   6  275.09    5.46
   2   2   6  270.39    5.18
  -3  -2  -6  144.43    3.68
  -3  -2  -6  134.95    3.24
   3   2   6  144.34    3.62
  -4  -2  -6   29.36    1.66
  -4  -2  -6   33.39    1.58
   4   2   6   30.80    1.83
  -5  -2  -6    5.24    0.96
  -5  -2  -6    3.74    0.78
   5   2   6    2.79    0.90
  -6  -2  -6   60.94    2.54
  -6  -2  -6   62.48    2.47
   6   2   6   55.26    2.75
  -7  -2  -6   -0.08    0.61
  -7  -2  -6    0.30    0.62
   7   2   6   -0.42    0.83
  -8  -2  -6    7.25    1.26
   8   2   6    5.94    1.36
   8  -3  -6    7.57    1.40
  -8   3   6   10.65    1.60
   7  -3  -6    9.10    1.39
  -7   3   6    8.80    1.39
   6  -3  -6    0.22    0.59
  -6   3   6    0.93    0.70
  -6   3   6   -0.31    0.64
   5  -3  -6    3.79    0.86
  -5   3   6    4.70    0.92
  -5   3   6    3.83    0.90
   4  -3  -6   -0.07    0.54
   4  -3  -6    0.70    0.58
  -4   3   6    1.15    0.65
   3  -3  -6    1.41    0.55
   3  -3  -6    1.26    0.62
  -3   3   6    1.03    0.59
   2  -3  -6    3.19    0.63
   2  -3  -6    1.95    0.59
  -2   3   6    2.54    0.66
   1  -3  -6  140.93    3.00
   1  -3  -6  143.64    3.35
  -1   3   6  143.02    3.58
  -1   3   6  147.59    2.56
   0  -3  -6   23.35    1.24
   0  -3  -6   22.80    1.01
   0   3   6   24.74    1.41
   0   3   6   22.55    1.08
  -1  -3  -6   15.57    1.06
  -1  -3  -6   14.93    0.72
   1   3   6   13.63    1.27
   1   3   6   15.10    1.09
  -2  -3  -6  183.25    3.88
  -2  -3  -6  190.78    4.39
   2   3   6  181.39    4.05
  -3  -3  -6   45.34    1.77
  -3  -3  -6   43.23    2.06
   3   3   6   45.57    2.09
  -4  -3  -6    5.80    0.86
  -4  -3  -6    4.73    0.95
   4   3   6    4.88    1.01
  -5  -3  -6   11.32    1.39
  -5  -3  -6   10.34    1.18
   5   3   6   10.18    1.38
  -6  -3  -6    0.60    0.70
  -6  -3  -6    0.10    0.58
   6   3   6    0.54    0.83
  -7  -3  -6    5.51    1.22
  -7  -3  -6    7.02    1.16
   7   3   6    5.58    1.34
  -8  -3  -6    9.55    1.38
   8   3   6    7.05    1.51
   8  -4  -6    5.60    1.28
  -8   4   6    5.13    1.30
   7  -4  -6    8.82    1.38
  -7   4   6    7.63    1.30
   6  -4  -6    9.30    1.37
  -6   4   6    8.57    1.29
   5  -4  -6    0.43    0.65
  -5   4   6    0.71    0.69
  -5   4   6    0.16    0.58
   4  -4  -6   22.07    1.84
   4  -4  -6   23.22    1.57
  -4   4   6   22.16    1.69
   3  -4  -6    0.77    0.59
   3  -4  -6    1.27    0.60
  -3   4   6    1.07    0.61
   2  -4  -6   49.98    2.06
   2  -4  -6   54.73    1.95
  -2   4   6   51.43    2.12
   1  -4  -6  240.76    4.44
   1  -4  -6  242.82    4.84
  -1   4   6  237.06    4.00
  -1   4   6  237.77    5.08
   0  -4  -6   60.12    1.74
   0  -4  -6   55.38    2.02
   0   4   6   59.79    2.28
   0   4   6   63.15    1.83
  -1  -4  -6   95.58    2.64
  -1  -4  -6   92.18    1.97
  -1  -4  -6   91.82    2.92
   1   4   6   92.42    2.96
   1   4   6   91.19    2.50
  -2  -4  -6   20.45    1.29
  -2  -4  -6   18.96    1.61
   2   4   6   18.95    1.37
  -3  -4  -6   -0.39    0.44
  -3  -4  -6    0.61    0.65
   3   4   6   -0.18    0.57
  -4  -4  -6    9.92    1.31
  -4  -4  -6   10.63    1.14
   4   4   6    9.29    1.27
  -5  -4  -6   -0.43    0.47
  -5  -4  -6    0.16    0.60
   5   4   6    1.12    0.80
  -6  -4  -6    2.43    0.75
  -6  -4  -6    0.39    0.74
   6   4   6    0.59    0.85
  -7  -4  -6    2.11    1.00
  -7  -4  -6    2.55    0.87
   7   4   6    3.08    1.18
  -8  -4  -6    5.61    1.11
   8   4   6    4.46    1.41
   8  -5  -6    6.52    1.42
  -8   5   6    8.11    1.47
   7  -5  -6    2.39    0.93
  -7   5   6    1.50    0.85
   6  -5  -6    1.63    0.83
  -6   5   6    0.24    0.73
   5  -5  -6   31.82    1.98
  -5   5   6   28.64    1.89
  -5   5   6   31.46    1.77
   4  -5  -6   60.27    2.49
  -4   5   6   66.19    2.45
  -4   5   6   61.54    2.57
   3  -5  -6    1.05    0.70
   3  -5  -6    0.93    0.63
  -3   5   6    0.69    0.59
   2  -5  -6   46.33    1.90
   2  -5  -6   45.30    2.03
  -2   5   6   46.59    2.07
   1  -5  -6  121.17    3.28
   1  -5  -6  126.24    3.03
  -1   5   6  129.31    3.51
  -1   5   6  126.59    2.71
   0  -5  -6  142.22    3.03
   0  -5  -6  137.55    3.42
   0   5   6  140.21    3.77
   0   5   6  138.23    3.10
  -1  -5  -6    3.06    0.67
  -1  -5  -6    2.03    0.73
   1   5   6    2.24    0.64
  -2  -5  -6    4.63    0.95
  -2  -5  -6    5.02    0.81
   2   5   6    4.55    0.87
  -3  -5  -6   12.42    1.42
  -3  -5  -6   11.33    1.12
   3   5   6    9.79    1.21
  -4  -5  -6   49.39    2.43
  -4  -5  -6   54.58    2.14
   4   5   6   58.37    2.61
  -5  -5  -6   13.25    1.63
  -5  -5  -6   12.00    1.24
   5   5   6   13.01    1.59
  -6  -5  -6    3.05    0.83
  -6  -5  -6    4.59    1.17
   6   5   6    3.91    1.13
  -7  -5  -6   -0.39    0.84
  -7  -5  -6    0.25    0.70
   7   5   6    0.47    1.01
   7  -6  -6    2.41    1.06
  -7   6   6    1.84    0.94
   6  -6  -6    0.18    0.67
  -6   6   6    1.21    0.76
   5  -6  -6   68.22    2.91
  -5   6   6   76.08    3.04
   4  -6  -6   35.73    2.08
   4  -6  -6   32.20    1.98
  -4   6   6   35.02    2.01
  -4   6   6   36.29    1.84
   3  -6  -6   25.88    1.64
   3  -6  -6   21.61    1.79
  -3   6   6   20.78    1.47
   2  -6  -6   63.18    2.32
   2  -6  -6   65.17    2.53
  -2   6   6   66.41    2.50
   1  -6  -6    0.52    0.53
   1  -6  -6   -0.41    0.47
  -1   6   6    0.79    0.51
  -1   6   6    0.68    0.55
   0  -6  -6    5.05    0.85
   0  -6  -6    4.26    0.72
   0   6   6    3.60    0.75
   0   6   6    4.21    0.89
  -1  -6  -6    4.19    0.92
  -1  -6  -6    4.64    0.81
   1   6   6    3.77    0.78
  -2  -6  -6    6.63    0.93
  -2  -6  -6    5.99    1.07
   2   6   6    5.57    0.95
  -3  -6  -6   58.62    2.20
  -3  -6  -6   60.46    2.64
   3   6   6   60.28    2.58
  -4  -6  -6    0.34    0.64
  -4  -6  -6    0.84    0.59
   4   6   6    0.02    0.75
  -5  -6  -6   17.27    1.51
  -5  -6  -6   20.50    2.03
   5   6   6   17.34    1.90
  -6  -6  -6    8.83    1.19
  -6  -6  -6    9.87    1.54
   6   6   6    6.82    1.44
  -7  -6  -6   10.37    1.73
   7   6   6    9.18    1.65
   7  -7  -6    4.85    1.29
  -7   7   6    1.91    0.95
   6  -7  -6   14.52    1.72
  -6   7   6   13.13    1.70
   5  -7  -6    9.70    1.42
  -5   7   6    9.16    1.37
   4  -7  -6    5.82    1.12
  -4   7   6    5.50    1.13
  -4   7   6    4.92    0.99
   3  -7  -6    2.02    0.76
   3  -7  -6    0.98    0.76
  -3   7   6    1.45    0.70
   2  -7  -6    7.08    1.05
   2  -7  -6   10.00    1.26
  -2   7   6    8.58    1.16
   1  -7  -6    1.31    0.68
   1  -7  -6    0.55    0.53
  -1   7   6    0.40    0.56
   0  -7  -6   10.88    1.36
   0  -7  -6   13.15    1.35
   0   7   6   10.78    1.34
   0   7   6   10.46    1.15
  -1  -7  -6    1.35    0.70
  -1  -7  -6    1.06    0.62
   1   7   6    0.28    0.61
  -2  -7  -6    2.45    0.88
  -2  -7  -6    2.01    0.71
   2   7   6    3.10    0.85
  -3  -7  -6    2.20    0.70
  -3  -7  -6    2.82    0.91
   3   7   6    1.94    0.87
  -4  -7  -6    6.19    1.25
  -4  -7  -6    8.15    1.12
   4   7   6    4.25    1.06
  -5  -7  -6   28.89    2.14
  -5  -7  -6   32.15    1.79
   5   7   6   26.66    2.42
  -6  -7  -6    7.12    1.45
   6   7   6    7.68    1.58
   6  -8  -6    6.36    1.33
  -6   8   6    6.08    1.26
   5  -8  -6   31.19    2.19
  -5   8   6   32.26    2.13
   4  -8  -6    2.85    0.95
  -4   8   6    2.53    0.89
   3  -8  -6    6.92    1.15
   3  -8  -6    8.33    1.29
  -3   8   6    7.59    1.14
   2  -8  -6    0.79    0.75
   2  -8  -6    0.12    0.62
  -2   8   6   -0.06    0.57
   1  -8  -6    0.09    0.60
   1  -8  -6    0.72    0.58
  -1   8   6    0.00    0.58
   0  -8  -6   13.48    1.57
   0  -8  -6   12.24    1.36
   0   8   6   11.45    1.29
  -1  -8  -6   20.61    1.86
  -1  -8  -6   22.13    1.54
   1   8   6   18.06    1.64
  -2  -8  -6    7.57    1.24
  -2  -8  -6   11.09    1.25
   2   8   6   10.65    1.41
  -3  -8  -6   21.05    1.46
  -3  -8  -6   22.43    2.05
   3   8   6   24.04    2.08
  -4  -8  -6   35.55    2.30
  -4  -8  -6   37.55    1.93
   4   8   6   33.12    2.28
  -5  -8  -6   20.55    2.20
   5   8   6   19.79    2.23
  -6  -8  -6    9.45    1.71
   6   8   6    9.70    1.75
   6  -9  -6    0.01    0.91
  -6   9   6    0.49    0.88
   5  -9  -6    5.08    1.23
  -5   9   6    9.21    1.42
   4  -9  -6    1.70    0.87
  -4   9   6    0.13    0.73
   3  -9  -6   13.41    1.64
   3  -9  -6   11.30    1.47
   2  -9  -6    8.79    1.26
   2  -9  -6    6.31    1.19
  -2   9   6    7.81    1.19
   1  -9  -6    1.03    0.77
  -1   9   6    1.47    0.73
   0  -9  -6   24.33    1.96
   0  -9  -6   27.79    1.92
   0   9   6   27.38    1.89
  -1  -9  -6   46.46    2.18
  -1  -9  -6   43.94    2.40
   1   9   6   41.95    2.32
  -2  -9  -6   31.97    1.88
  -2  -9  -6   34.68    2.24
   2   9   6   37.35    2.32
   3   9   6   25.20    2.26
  -4  -9  -6    7.00    1.38
   4   9   6   11.39    1.72
  -5  -9  -6    4.21    1.26
   5   9   6    3.34    1.33
   5 -10  -6    5.66    1.33
  -5  10   6    5.65    1.27
   4 -10  -6    0.59    0.80
  -4  10   6   -0.90    0.59
   3 -10  -6    0.11    0.73
  -3  10   6    1.49    0.82
   2 -10  -6   18.24    1.89
  -2  10   6   23.85    1.99
   1 -10  -6    2.41    0.92
  -1  10   6    1.94    0.82
   0 -10  -6   11.49    1.54
   0 -10  -6   11.68    1.44
  -1 -10  -6   57.07    2.56
  -1 -10  -6   51.19    2.73
   1  10   6   50.37    2.74
  -2 -10  -6   23.81    2.19
   2  10   6   19.00    2.04
  -3 -10  -6    2.83    1.08
   3  10   6    1.02    1.04
  -4 -10  -6    4.72    1.29
   4  10   6    3.80    1.28
   3 -11  -6   19.48    1.98
  -3  11   6   20.03    2.01
   2 -11  -6   33.94    2.21
   1 -11  -6    8.22    1.39
  -1  11   6    9.03    1.40
   0 -11  -6   11.00    1.63
   0  11   6    7.02    1.34
  -1 -11  -6    9.12    1.55
   1  11   6    7.81    1.52
  -2 -11  -6    0.55    0.88
   2  11   6    1.39    1.11
   0  12  -7   15.28    1.85
   0 -12   7   13.71    2.01
  -1  12  -7    2.41    1.04
   3  11  -7   21.67    2.14
  -3 -11   7   24.41    2.26
  -3 -11   7   21.11    2.28
   2  11  -7   -0.52    0.74
  -2 -11   7    0.50    0.95
  -2 -11   7    0.41    0.76
   1  11  -7    0.05    0.77
  -1 -11   7    0.59    0.97
   0  11  -7    0.09    0.73
   0 -11   7   -0.84    0.75
  -1  11  -7    5.78    1.21
   1 -11   7    8.60    1.64
  -2  11  -7   23.26    2.17
   2 -11   7   23.18    2.46
  -3  11  -7   -0.35    0.72
   3 -11   7    1.00    0.99
   4  10  -7   14.20    1.85
   4  10  -7   11.51    1.61
  -4 -10   7    8.82    1.44
  -4 -10   7   12.29    1.73
   3  10  -7   -0.02    0.74
  -3 -10   7   -0.15    0.79
  -3 -10   7    0.42    0.79
   2  10  -7   13.40    1.58
  -2 -10   7   11.56    1.70
  -2 -10   7   10.57    1.43
   1  10  -7    1.05    0.76
  -1 -10   7    2.03    0.82
  -1 -10   7    0.55    0.94
   0  10  -7    0.22    0.70
   0 -10   7    0.45    0.89
  -1  10  -7    3.09    0.95
   1 -10   7    5.09    1.35
  -2  10  -7    2.30    0.90
   2 -10   7    1.73    1.08
  -3  10  -7   22.56    2.05
   3 -10   7   18.30    2.24
  -4  10  -7   10.98    1.55
   4 -10   7   11.30    1.86
  -5  10  -7   16.94    1.95
   5 -10   7   20.13    2.44
   5   9  -7   -0.18    0.82
  -5  -9   7    0.04    0.77
   4   9  -7    2.16    1.00
   4   9  -7    2.38    0.95
  -4  -9   7    2.71    0.92
  -4  -9   7    4.05    1.11
   3   9  -7   20.15    1.86
  -3  -9   7   18.25    1.81
  -3  -9   7   18.12    1.87
   2   9  -7    0.39    0.70
  -2  -9   7    0.94    0.83
  -2  -9   7    1.76    0.77
   1   9  -7    0.13    0.65
  -1  -9   7    1.11    0.71
  -1  -9   7    0.24    0.74
   0  -9   7   13.05    1.77
  -1   9  -7    2.34    0.87
   1  -9   7    3.44    1.08
  -2   9  -7   21.43    1.86
   2  -9   7   21.44    2.23
  -3   9  -7   88.16    3.33
   3  -9   7   96.23    4.04
  -4   9  -7    3.55    1.05
   4  -9   7    3.08    1.22
  -5   9  -7   14.78    1.71
   5  -9   7   18.30    2.25
  -6   9  -7    2.72    1.02
   6  -9   7    2.44    1.27
   6   8  -7   -0.95    0.76
  -6  -8   7    0.48    0.76
   5   8  -7    1.62    0.87
  -5  -8   7    2.85    1.00
   4   8  -7   -0.15    0.75
   4   8  -7   -0.43    0.66
  -4  -8   7    0.43    0.66
  -4  -8   7    1.23    0.79
   3   8  -7    3.76    0.96
  -3  -8   7    5.03    1.05
  -3  -8   7    5.67    1.10
   2   8  -7    1.24    0.71
  -2  -8   7   -0.23    0.64
  -2  -8   7    1.13    0.64
   1   8  -7   53.62    2.36
  -1  -8   7   55.18    2.28
  -1  -8   7   58.56    2.76
   0   8  -7   70.20    2.67
   0  -8   7   68.68    3.15
   0  -8   7   73.22    2.47
  -1   8  -7   42.93    2.12
   1  -8   7   45.17    2.59
  -2   8  -7   46.30    2.24
   2  -8   7   41.52    2.57
  -3   8  -7   54.18    2.44
   3  -8   7   51.35    2.95
  -4   8  -7   -0.07    0.58
   4  -8   7   -0.15    0.81
  -5   8  -7    0.99    0.77
  -5   8  -7    0.08    0.66
   5  -8   7    0.14    0.88
  -6   8  -7    4.43    1.08
  -6   8  -7    5.34    1.17
   6  -8   7    3.24    1.23
   6   7  -7    0.61    0.81
  -6  -7   7    1.39    0.89
   5   7  -7    3.13    0.97
  -5  -7   7    4.49    1.04
   4   7  -7    0.49    0.76
   4   7  -7    0.80    0.80
  -4  -7   7    0.05    0.61
  -4  -7   7    0.36    0.67
   3   7  -7    2.36    0.84
  -3  -7   7    1.02    0.70
  -3  -7   7    1.88    0.75
   2   7  -7   19.44    1.64
  -2  -7   7   22.26    1.62
  -2  -7   7   21.01    1.53
   1   7  -7  101.24    3.13
  -1  -7   7  102.24    3.52
  -1  -7   7  101.48    3.06
   0   7  -7   90.60    2.95
   0  -7   7  100.27    3.60
   0  -7   7   98.70    2.82
  -1   7  -7   63.00    2.38
   1  -7   7   65.52    2.11
   1  -7   7   57.27    2.84
  -2   7  -7  124.97    3.54
   2  -7   7  135.14    4.41
  -3   7  -7    2.13    0.64
  -3   7  -7    1.49    0.68
   3  -7   7    2.17    1.02
  -4   7  -7   21.21    1.74
  -4   7  -7   22.03    1.50
   4  -7   7   20.18    2.06
  -5   7  -7   26.10    1.72
  -5   7  -7   24.31    1.73
   5  -7   7   21.78    2.24
  -6   7  -7    0.02    0.73
  -6   7  -7    2.30    0.89
   6  -7   7    0.93    0.97
  -7   7  -7   -0.63    0.79
   7  -7   7    2.26    1.14
   7   6  -7    3.83    1.15
  -7  -6   7    4.50    1.19
   6   6  -7    1.41    0.88
  -6  -6   7    2.71    0.93
   5   6  -7    0.64    0.75
  -5  -6   7    0.15    0.67
   4   6  -7   46.96    2.17
   4   6  -7   49.09    2.34
  -4  -6   7   52.45    2.41
   3   6  -7    2.00    0.73
  -3  -6   7    1.77    0.70
  -3  -6   7    1.70    0.65
   2   6  -7    4.32    0.88
  -2  -6   7    4.98    0.96
  -2  -6   7    5.27    0.94
   1   6  -7  136.44    3.59
  -1  -6   7  135.08    3.46
  -1  -6   7  133.44    3.90
   0   6  -7   13.90    1.27
   0  -6   7   12.20    1.44
   0  -6   7   12.85    1.15
  -1   6  -7    4.32    0.62
  -1   6  -7    3.04    0.71
   1  -6   7    3.81    0.97
   1  -6   7    3.71    0.68
  -2   6  -7   -0.02    0.50
  -2   6  -7    0.47    0.45
   2  -6   7    0.15    0.74
  -3   6  -7    1.44    0.62
  -3   6  -7    2.43    0.63
   3  -6   7    1.41    0.80
  -4   6  -7   20.16    1.44
  -4   6  -7   19.06    1.58
   4  -6   7   17.34    1.86
  -5   6  -7    1.09    0.68
  -5   6  -7    1.98    0.80
   5  -6   7    1.86    0.92
  -6   6  -7   10.98    1.35
  -6   6  -7   13.53    1.54
   6  -6   7   11.95    1.73
  -7   6  -7    3.88    1.06
   7  -6   7    5.88    1.35
   7   5  -7    0.68    0.82
  -7  -5   7    0.64    0.80
   6   5  -7    0.16    0.67
  -6  -5   7    0.11    0.73
   5   5  -7   43.20    2.27
  -5  -5   7   40.11    2.18
   4   5  -7   24.82    1.68
  -4  -5   7   25.22    1.66
   3   5  -7    6.99    1.04
  -3  -5   7    6.28    1.00
  -3  -5   7    8.26    0.98
   2   5  -7    2.02    0.67
  -2  -5   7    3.29    0.76
  -2  -5   7    2.04    0.67
   1   5  -7    0.46    0.54
  -1  -5   7    1.92    0.73
  -1  -5   7    0.79    0.58
   0   5  -7   14.99    0.84
   0   5  -7   12.44    1.16
   0  -5   7   12.94    1.15
   0  -5   7   12.01    1.37
  -1   5  -7    4.00    0.73
  -1   5  -7    5.18    0.67
   1  -5   7    5.89    1.14
   1  -5   7    5.08    0.76
  -2   5  -7   17.54    1.23
  -2   5  -7   17.11    1.11
   2  -5   7   20.20    1.15
   2  -5   7   17.67    1.72
  -3   5  -7   17.32    1.22
  -3   5  -7   18.67    1.23
   3  -5   7   17.81    1.73
  -4   5  -7   -0.11    0.49
  -4   5  -7   -0.56    0.43
   4  -5   7   -0.14    0.65
  -5   5  -7   55.69    2.31
  -5   5  -7   57.27    2.20
   5  -5   7   50.97    2.72
  -6   5  -7   35.42    2.01
   6  -5   7   36.63    2.42
  -7   5  -7   14.20    1.65
   7  -5   7   15.96    2.01
  -8   5  -7   15.51    1.79
   8  -5   7   14.09    1.99
   8   4  -7    0.45    0.82
  -8  -4   7    0.08    0.86
   7   4  -7    1.53    0.89
  -7  -4   7    2.20    0.99
   6   4  -7    7.16    1.23
  -6  -4   7    7.05    1.20
   5   4  -7   40.70    2.13
  -5  -4   7   40.60    2.19
   4   4  -7   23.79    1.59
  -4  -4   7   21.60    1.53
   3   4  -7    1.24    0.63
  -3  -4   7    1.32    0.69
  -3  -4   7    1.17    0.53
   2   4  -7   18.74    1.31
  -2  -4   7   19.41    1.24
  -2  -4   7   19.20    1.33
   1   4  -7   38.27    1.28
   1   4  -7   35.25    1.61
  -1  -4   7   37.72    1.67
  -1  -4   7   35.54    1.75
   0   4  -7   98.70    2.67
   0   4  -7  100.64    2.23
   0  -4   7   95.18    2.64
   0  -4   7   96.46    3.06
  -1   4  -7    9.28    0.94
  -1   4  -7    8.30    0.79
   1  -4   7    8.56    1.15
   1  -4   7    8.91    0.90
  -2   4  -7   17.70    1.08
  -2   4  -7   17.77    1.14
   2  -4   7   18.20    1.07
   2  -4   7   18.86    1.67
  -3   4  -7    2.08    0.60
  -3   4  -7    0.64    0.50
   3  -4   7    0.66    0.68
  -4   4  -7   23.09    1.27
  -4   4  -7   22.42    1.47
   4  -4   7   20.07    1.82
  -5   4  -7  231.01    5.16
  -5   4  -7  239.04    4.78
   5  -4   7  241.38    5.96
  -6   4  -7   42.14    2.14
   6  -4   7   42.37    2.54
  -7   4  -7    6.53    1.24
   7  -4   7    7.01    1.38
  -8   4  -7    3.10    1.05
   8  -4   7    3.63    1.30
   8   3  -7    4.59    1.22
  -8  -3   7    3.71    1.22
   7   3  -7    1.19    0.82
  -7  -3   7    0.83    0.82
   6   3  -7    0.59    0.68
  -6  -3   7    0.47    0.67
   5   3  -7   33.70    1.91
  -5  -3   7   32.00    1.94
   4   3  -7   22.14    1.57
  -4  -3   7   21.44    1.55
   3   3  -7    0.11    0.52
   3   3  -7   -0.37    0.41
  -3  -3   7    1.00    0.62
  -3  -3   7    0.29    0.40
   2   3  -7    6.64    0.73
   2   3  -7    6.07    0.89
  -2  -3   7    5.98    0.71
  -2  -3   7    4.59    0.82
   1   3  -7   11.69    0.89
   1   3  -7   11.32    1.09
  -1  -3   7   10.31    1.02
  -1  -3   7   12.58    1.15
   0   3  -7    5.33    0.64
   0   3  -7    2.79    0.63
   0  -3   7    3.06    0.73
   0  -3   7    4.85    0.77
  -1   3  -7   10.34    0.91
  -1   3  -7   10.40    0.95
   1  -3   7    7.86    0.87
   1  -3   7   10.80    1.19
  -2   3  -7  118.11    2.82
  -2   3  -7  120.38    2.76
   2  -3   7  122.15    2.85
   2  -3   7  118.97    3.46
  -3   3  -7   10.68    0.93
  -3   3  -7    8.53    0.96
   3  -3   7   12.69    1.34
   3  -3   7   10.87    0.94
  -4   3  -7   69.48    2.38
  -4   3  -7   66.99    2.03
   4  -3   7   63.96    2.66
  -5   3  -7   76.48    2.66
   5  -3   7   81.71    3.22
  -6   3  -7   10.24    1.28
   6  -3   7   11.51    1.59
  -7   3  -7    4.67    1.06
   7  -3   7    3.55    1.16
  -8   3  -7    0.91    0.84
   8  -3   7    0.84    1.02
   8   2  -7    8.52    1.45
  -8  -2   7    6.23    1.39
   7   2  -7    0.56    0.76
  -7  -2   7   -0.15    0.70
   6   2  -7   -0.25    0.61
  -6  -2   7    0.10    0.67
   5   2  -7    7.21    1.11
  -5  -2   7    8.21    1.22
   4   2  -7    1.32    0.64
  -4  -2   7    1.15    0.58
  -4  -2   7    2.83    0.79
   3   2  -7   -0.10    0.50
   3   2  -7    0.49    0.49
  -3  -2   7    0.72    0.57
   2   2  -7   19.11    1.12
   2   2  -7   20.65    1.32
  -2  -2   7   21.43    1.00
  -2  -2   7   18.34    1.36
   1   2  -7    8.63    0.80
   1   2  -7   10.19    0.99
  -1  -2   7   10.75    0.93
  -1  -2   7    8.97    1.01
   0   2  -7   58.81    1.74
   0   2  -7   56.50    1.80
   0  -2   7   57.92    2.02
   0  -2   7   55.06    2.03
  -1   2  -7   89.79    2.31
  -1   2  -7   90.25    2.26
   1  -2   7   91.80    2.70
   1  -2   7   90.30    2.48
  -2   2  -7  188.49    3.83
  -2   2  -7  189.04    3.55
   2  -2   7  190.00    3.90
   2  -2   7  187.33    4.29
  -3   2  -7   79.68    2.03
  -3   2  -7   78.06    2.38
   3  -2   7   82.98    2.30
   3  -2   7   79.77    2.76
  -4   2  -7   12.23    1.19
   4  -2   7   13.32    1.42
   4  -2   7   16.71    1.11
  -5   2  -7    8.02    1.07
   5  -2   7    9.26    1.36
  -6   2  -7    3.93    0.90
   6  -2   7    1.73    0.96
  -7   2  -7    2.61    0.87
   7  -2   7    3.16    1.09
  -8   2  -7    9.58    1.42
   8  -2   7    6.97    1.49
   8   1  -7    1.32    0.89
  -8  -1   7    3.05    1.09
   7   1  -7    3.96    1.02
  -7  -1   7    4.90    1.13
   6   1  -7    3.38    0.93
  -6  -1   7    4.25    0.87
  -6  -1   7    6.77    1.16
   5   1  -7   25.46    1.65
  -5  -1   7   25.47    1.68
  -5  -1   7   26.01    1.54
   4   1  -7   10.27    1.14
   4   1  -7    8.03    1.06
  -4  -1   7   10.89    1.28
  -4  -1   7    9.18    1.06
   3   1  -7    1.83    0.63
   3   1  -7    1.72    0.60
  -3  -1   7    3.27    0.82
   2   1  -7  156.55    3.40
   2   1  -7  154.12    3.51
  -2  -1   7  157.75    3.78
  -2  -1   7  157.40    2.71
   1   1  -7  192.38    3.73
   1   1  -7  192.32    3.86
  -1  -1   7  187.37    4.16
  -1  -1   7  189.68    3.58
   0   1  -7  179.26    3.55
   0   1  -7  179.49    3.53
   0  -1   7  183.13    3.70
   0  -1   7  174.43    3.87
  -1   1  -7  146.45    3.19
  -1   1  -7  146.37    2.94
   1  -1   7  149.21    3.44
   1  -1   7  146.78    3.35
  -2   1  -7   50.75    1.50
  -2   1  -7   50.75    1.79
   2  -1   7   53.86    1.91
   2  -1   7   54.89    2.09
  -3   1  -7    0.26    0.44
  -3   1  -7    0.18    0.31
   3  -1   7   -0.01    0.54
   3  -1   7    0.45    0.47
  -4   1  -7   29.05    1.55
   4  -1   7   34.12    1.99
   4  -1   7   29.64    1.50
  -5   1  -7   -0.17    0.49
   5  -1   7    0.07    0.65
  -6   1  -7   23.69    1.61
   6  -1   7   30.11    2.08
  -7   1  -7    0.88    0.72
   7  -1   7    0.72    0.95
  -8   1  -7    1.37    0.84
   8  -1   7    0.22    0.95
   8   0  -7    8.92    1.42
  -8   0   7   11.76    1.68
   7   0  -7    1.78    0.86
  -7   0   7    1.87    0.90
   6   0  -7    2.76    0.89
  -6   0   7    3.43    0.86
  -6   0   7    4.20    1.02
   5   0  -7    2.17    0.73
  -5   0   7    1.17    0.59
  -5   0   7    1.88    0.73
   4   0  -7   -0.17    0.47
   4   0  -7   -0.18    0.52
  -4   0   7    0.01    0.57
   3   0  -7   14.30    1.25
   3   0  -7   14.00    1.27
  -3   0   7   15.95    1.39
   2   0  -7   87.99    2.46
   2   0  -7   85.37    2.43
  -2   0   7   82.53    2.64
   1   0  -7  225.39    4.29
   1   0  -7  237.52    4.40
  -1   0   7  235.45    4.80
  -1   0   7  224.24    3.87
   0   0  -7  161.68    3.20
   0   0  -7  164.30    3.45
   0   0   7  164.31    3.80
   0   0   7  166.62    3.27
  -1   0  -7  226.48    4.30
  -1   0  -7  220.29    3.82
   1   0   7  223.04    4.31
   1   0   7  219.14    4.61
  -2   0  -7    1.68    0.53
  -2   0  -7    1.42    0.36
   2   0   7    1.31    0.58
   2   0   7    2.45    0.67
  -3   0  -7   64.42    2.16
   3   0   7   66.12    2.25
   3   0   7   66.90    2.45
  -4   0  -7   24.93    1.50
   4   0   7   25.36    1.47
   4   0   7   25.04    1.81
  -5   0  -7    1.71    0.67
   5   0   7    2.26    0.87
   5   0   7    1.63    0.66
  -6   0  -7    1.13    0.69
   6   0   7    0.06    0.80
  -7   0  -7   -0.52    0.59
   7   0   7    0.02    0.81
  -8   0  -7   28.66    2.05
   8   0   7   26.41    2.53
   8  -1  -7    0.18    0.81
  -8   1   7    0.71    0.83
   7  -1  -7    0.26    0.70
  -7   1   7    0.86    0.77
  -7   1   7    2.51    0.91
   6  -1  -7   42.30    2.17
  -6   1   7   40.43    2.17
  -6   1   7   43.87    2.27
   5  -1  -7   15.50    1.49
  -5   1   7   19.20    1.69
  -5   1   7   17.23    1.55
   4  -1  -7    8.78    1.10
   4  -1  -7    8.09    1.10
  -4   1   7    8.51    1.15
   3  -1  -7   68.28    2.33
   3  -1  -7   76.14    2.56
  -3   1   7   76.12    2.66
   2  -1  -7   78.90    2.42
   2  -1  -7   79.33    2.31
  -2   1   7   77.85    2.56
   1  -1  -7    2.88    0.61
   1  -1  -7    3.30    0.60
  -1   1   7    3.98    0.45
  -1   1   7    5.09    0.87
   0  -1  -7    1.03    0.47
   0  -1  -7    1.45    0.42
   0   1   7    0.88    0.44
   0   1   7    1.96    0.59
  -1  -1  -7   47.93    1.74
  -1  -1  -7   46.80    1.35
   1   1   7   46.47    1.70
   1   1   7   42.34    1.84
  -2  -1  -7   35.41    1.55
   2   1   7   37.21    1.73
   2   1   7   38.18    1.78
  -3  -1  -7   29.45    1.49
   3   1   7   28.89    1.67
   3   1   7   31.30    1.68
  -4  -1  -7   11.86    1.18
   4   1   7   12.92    1.43
   4   1   7   10.92    1.23
  -5  -1  -7    1.56    0.71
  -5  -1  -7    1.50    0.66
   5   1   7    2.25    0.71
   5   1   7    0.50    0.73
  -6  -1  -7    1.97    0.80
  -6  -1  -7    1.45    0.70
   6   1   7    1.68    0.96
  -7  -1  -7   24.33    1.99
   7   1   7   18.74    2.06
  -8  -1  -7   17.29    1.81
   8   1   7   14.55    2.01
   8  -2  -7    1.55    0.92
  -8   2   7    1.70    0.97
   7  -2  -7    2.84    0.93
  -7   2   7    1.73    0.94
  -7   2   7    4.20    1.04
   6  -2  -7   56.18    2.52
  -6   2   7   51.65    2.46
  -6   2   7   51.44    2.44
   5  -2  -7   28.86    1.75
  -5   2   7   28.18    1.81
  -5   2   7   27.33    1.74
   4  -2  -7   12.37    1.37
   4  -2  -7   11.73    1.25
  -4   2   7   12.85    1.39
   3  -2  -7    0.56    0.51
   3  -2  -7    0.65    0.58
  -3   2   7    0.47    0.56
   2  -2  -7   28.65    1.43
   2  -2  -7   26.57    1.52
  -2   2   7   25.37    1.54
   1  -2  -7   15.16    1.23
   1  -2  -7   16.51    1.03
  -1   2   7   15.27    1.33
   0  -2  -7    7.61    0.73
   0  -2  -7   11.78    1.07
   0   2   7    7.64    0.75
   0   2   7    9.85    1.12
  -1  -2  -7    1.68    0.39
  -1  -2  -7    2.61    0.60
   1   2   7    2.68    0.69
   1   2   7    1.40    0.53
  -2  -2  -7    0.39    0.46
   2   2   7    0.41    0.56
   2   2   7    0.03    0.50
  -3  -2  -7    9.89    1.06
   3   2   7   10.63    1.23
   3   2   7   11.03    1.25
  -4  -2  -7    7.95    1.16
  -4  -2  -7    6.96    0.99
   4   2   7    6.96    1.12
  -5  -2  -7   34.42    1.84
  -5  -2  -7   35.04    1.99
   5   2   7   36.83    2.23
  -6  -2  -7   37.66    2.00
  -6  -2  -7   38.82    2.15
   6   2   7   39.07    2.46
  -7  -2  -7   48.13    2.34
   7   2   7   45.75    2.79
  -8  -2  -7    4.36    1.10
   8   2   7    3.51    1.40
   8  -3  -7    1.26    0.93
  -8   3   7    1.91    1.02
   7  -3  -7    4.78    1.13
  -7   3   7    4.63    1.13
   6  -3  -7   47.09    2.44
  -6   3   7   42.03    2.27
  -6   3   7   48.51    2.37
   5  -3  -7   59.12    2.55
  -5   3   7   58.14    2.50
  -5   3   7   57.64    2.57
   4  -3  -7    2.49    0.76
   4  -3  -7    0.33    0.62
  -4   3   7    2.20    0.78
   3  -3  -7    0.24    0.55
   3  -3  -7   -0.54    0.41
  -3   3   7    0.00    0.58
   2  -3  -7    0.71    0.54
   2  -3  -7    1.14    0.52
  -2   3   7    1.41    0.64
   1  -3  -7   50.01    1.69
   1  -3  -7   44.70    1.90
  -1   3   7   48.92    2.11
   0  -3  -7   15.66    0.93
   0  -3  -7   12.47    1.14
   0   3   7   13.40    0.97
   0   3   7   11.71    1.25
  -1  -3  -7   17.72    1.21
   1   3   7   18.36    1.57
   1   3   7   21.32    1.25
  -2  -3  -7   92.07    2.69
   2   3   7   98.70    2.84
   2   3   7   97.00    3.11
  -3  -3  -7   45.67    1.91
  -3  -3  -7   45.40    2.22
   3   3   7   44.22    2.14
  -4  -3  -7  165.30    4.43
  -4  -3  -7  161.10    3.98
   4   3   7  166.96    4.43
  -5  -3  -7   23.28    1.52
  -5  -3  -7   27.90    1.88
   5   3   7   20.73    1.89
  -6  -3  -7   17.02    1.78
  -6  -3  -7   17.36    1.58
   6   3   7   17.56    1.88
  -7  -3  -7   15.86    1.65
  -7  -3  -7   20.30    1.99
   7   3   7   18.06    2.04
  -8  -3  -7    0.04    0.67
   8   3   7   -1.51    0.85
   8  -4  -7    0.38    0.94
  -8   4   7    2.18    1.04
   7  -4  -7    1.68    0.91
  -7   4   7    0.29    0.73
   6  -4  -7   27.64    1.93
  -6   4   7   28.97    1.96
  -6   4   7   30.67    1.92
   5  -4  -7    3.88    0.93
  -5   4   7    4.46    1.03
  -5   4   7    4.05    0.98
   4  -4  -7    1.34    0.74
   4  -4  -7    0.97    0.67
  -4   4   7    1.18    0.73
   3  -4  -7   42.53    1.90
   3  -4  -7   43.74    2.15
  -3   4   7   44.93    2.08
   2  -4  -7   75.59    2.65
   2  -4  -7   77.01    2.40
  -2   4   7   71.09    2.65
   1  -4  -7   28.34    1.35
   1  -4  -7   27.82    1.56
  -1   4   7   27.23    1.65
   0  -4  -7   50.58    2.01
   0  -4  -7   54.03    1.68
   0   4   7   53.17    1.74
   0   4   7   51.80    2.24
  -1  -4  -7  102.50    2.90
   1   4   7   98.19    3.23
   1   4   7  102.83    2.78
  -2  -4  -7   51.88    2.34
  -2  -4  -7   44.11    1.92
   2   4   7   48.75    2.08
   2   4   7   47.00    2.25
  -3  -4  -7   41.90    2.19
  -3  -4  -7   48.00    1.96
   3   4   7   45.80    2.21
  -4  -4  -7   63.78    2.38
  -4  -4  -7   72.01    2.90
   4   4   7   69.01    2.85
  -5  -4  -7    0.95    0.78
  -5  -4  -7    0.87    0.61
   5   4   7    2.14    0.95
  -6  -4  -7    0.51    0.66
  -6  -4  -7   -0.34    0.74
   6   4   7    0.92    0.93
  -7  -4  -7    2.95    0.89
  -7  -4  -7    2.32    1.03
   7   4   7    2.56    1.20
   7  -5  -7   -0.50    0.84
  -7   5   7    1.40    0.89
   6  -5  -7    2.51    0.93
  -6   5   7    2.58    0.90
   5  -5  -7    1.01    0.75
  -5   5   7    1.99    0.81
  -5   5   7    0.56    0.65
   4  -5  -7    9.73    1.29
   4  -5  -7   10.70    1.40
  -4   5   7   11.36    1.37
   3  -5  -7   55.70    2.45
   3  -5  -7   57.45    2.29
  -3   5   7   47.70    2.24
   2  -5  -7   13.85    1.41
   2  -5  -7   14.42    1.33
  -2   5   7   14.08    1.44
   1  -5  -7    1.55    0.57
   1  -5  -7    1.66    0.66
  -1   5   7    0.96    0.65
   0  -5  -7   30.11    1.66
   0  -5  -7   31.52    1.38
   0   5   7   32.64    1.48
   0   5   7   34.11    1.90
  -1  -5  -7  136.89    3.53
   1   5   7  132.84    3.36
   1   5   7  129.87    3.86
  -2  -5  -7   12.98    1.50
  -2  -5  -7   13.36    1.28
   2   5   7   14.26    1.37
  -3  -5  -7   44.58    1.98
  -3  -5  -7   42.19    2.31
   3   5   7   41.05    2.16
  -4  -5  -7    2.85    0.78
  -4  -5  -7    2.73    0.91
   4   5   7    2.22    0.93
  -5  -5  -7   15.39    1.52
  -5  -5  -7   20.72    2.01
   5   5   7   17.12    1.86
  -6  -5  -7    2.58    0.81
  -6  -5  -7    1.92    0.96
   6   5   7    1.17    0.97
  -7  -5  -7   -0.31    0.62
  -7  -5  -7   -0.23    0.83
   7   5   7    1.50    1.14
   7  -6  -7    0.48    0.91
  -7   6   7    0.93    0.83
   6  -6  -7    2.17    1.01
  -6   6   7    0.67    0.81
   5  -6  -7    2.20    0.86
  -5   6   7    1.23    0.81
   4  -6  -7   30.12    2.03
   4  -6  -7   35.67    2.03
  -4   6   7   30.50    1.83
   3  -6  -7   73.67    2.73
   3  -6  -7   75.38    2.98
  -3   6   7   71.54    2.73
   2  -6  -7   22.57    1.48
   2  -6  -7   24.34    1.69
  -2   6   7   22.33    1.63
   1  -6  -7   67.88    2.28
   1  -6  -7   69.09    2.60
  -1   6   7   67.10    2.67
   0  -6  -7   73.91    2.64
   0   6   7   77.05    2.38
   0   6   7   78.99    2.98
  -1  -6  -7    5.98    0.97
   1   6   7    3.86    0.98
   1   6   7    6.04    0.92
  -2  -6  -7    0.59    0.72
  -2  -6  -7    0.00    0.48
   2   6   7   -0.09    0.61
  -3  -6  -7    9.73    1.17
  -3  -6  -7   11.30    1.46
   3   6   7   11.38    1.43
  -4  -6  -7    0.35    0.68
  -4  -6  -7    0.81    0.65
   4   6   7    0.44    0.81
  -5  -6  -7   10.16    1.29
  -5  -6  -7    9.63    1.50
   5   6   7   11.64    1.67
  -6  -6  -7    6.88    1.16
  -6  -6  -7    7.25    1.42
   6   6   7    5.22    1.33
  -7   7   7    7.64    1.42
   6  -7  -7    2.43    1.05
  -6   7   7    1.70    0.88
   5  -7  -7    2.24    0.90
  -5   7   7    1.59    0.84
   4  -7  -7   15.87    1.66
   4  -7  -7   12.87    1.58
  -4   7   7   16.04    1.72
  -4   7   7   15.66    1.59
   3  -7  -7   70.42    2.98
   3  -7  -7   74.24    2.80
  -3   7   7   74.92    2.86
   2  -7  -7   46.32    2.11
   2  -7  -7   46.65    2.35
  -2   7   7   43.47    2.19
   1  -7  -7    8.73    1.21
   1  -7  -7    7.78    1.02
  -1   7   7    9.18    1.26
   0  -7  -7  123.12    3.65
   0   7   7  127.50    3.97
  -1  -7  -7    0.92    0.60
  -1  -7  -7    1.76    0.78
   1   7   7    0.36    0.62
   1   7   7    1.19    0.70
  -2  -7  -7    5.17    0.95
  -2  -7  -7    3.52    0.95
   2   7   7    5.10    1.05
  -3  -7  -7    1.58    0.67
  -3  -7  -7    0.29    0.74
   3   7   7    0.91    0.82
  -4  -7  -7    4.41    1.11
  -4  -7  -7    5.19    1.01
   4   7   7    4.46    1.16
  -5  -7  -7    0.02    0.61
  -5  -7  -7   -0.55    0.66
   5   7   7    0.89    0.87
  -6  -7  -7    0.59    0.93
  -6  -7  -7    0.70    0.75
   6   7   7    0.33    1.11
   6  -8  -7    9.32    1.59
  -6   8   7   10.01    1.58
   5  -8  -7   -0.01    0.86
  -5   8   7   -0.23    0.69
   4  -8  -7   14.83    1.73
  -4   8   7   21.44    2.03
   3  -8  -7   38.61    2.25
   3  -8  -7   37.72    2.13
  -3   8   7   33.17    2.06
   2  -8  -7    0.22    0.61
   2  -8  -7    0.63    0.68
  -2   8   7   -0.22    0.64
   1  -8  -7    0.95    0.80
  -1   8   7    2.51    0.87
   0  -8  -7    1.27    0.72
   0   8   7    0.42    0.71
  -1  -8  -7    1.39    0.86
  -1  -8  -7    0.49    0.65
   1   8   7    1.18    0.77
  -2  -8  -7    0.80    0.69
  -2  -8  -7    1.69    0.85
   2   8   7    2.26    0.92
  -3  -8  -7    4.01    0.92
  -3  -8  -7    3.14    1.00
   3   8   7    2.92    0.98
  -4  -8  -7    1.86    0.80
  -4  -8  -7    3.58    1.11
   4   8   7    2.08    1.13
  -5  -8  -7   -0.12    0.76
   5   8   7    0.26    0.90
   5  -9  -7    3.23    1.14
  -5   9   7    4.27    1.14
   4  -9  -7    4.37    1.15
  -4   9   7    4.25    1.12
   3  -9  -7    1.59    0.89
   3  -9  -7    2.04    0.88
   2  -9  -7    5.76    1.23
  -2   9   7    4.90    1.13
   1  -9  -7    2.22    0.91
  -1   9   7    3.07    0.96
   0  -9  -7    0.26    0.62
   0   9   7   -0.17    0.66
  -1  -9  -7   21.60    2.07
  -1  -9  -7   19.67    1.81
  -2  -9  -7    1.07    0.74
  -2  -9  -7    0.18    0.72
   2   9   7    0.58    0.88
  -3  -9  -7   13.13    1.49
  -3  -9  -7   14.06    1.77
   3   9   7   13.29    1.78
  -4  -9  -7    9.16    1.54
   4   9   7    8.23    1.62
   4 -10  -7    4.29    1.20
  -4  10   7    6.13    1.30
   3 -10  -7    8.81    1.40
   3 -10  -7    5.91    1.28
  -3  10   7    6.61    1.30
   2 -10  -7    5.76    1.30
  -2  10   7    7.26    1.32
   1 -10  -7    5.49    1.22
  -1  10   7    6.53    1.28
   0 -10  -7    0.24    0.67
   0  10   7    0.34    0.76
  -1 -10  -7    0.78    0.92
  -1 -10  -7    0.45    0.77
  -2 -10  -7   16.43    1.99
   2  10   7   20.47    2.09
  -3 -10  -7   51.91    2.92
   3  10   7   52.85    3.10
   2 -11  -7    0.76    0.88
   1 -11  -7    6.03    1.32
  -1  11   7    7.61    1.41
   0  11   7   15.36    1.88
  -1 -11  -7   12.91    1.86
   2  11  -8   14.55    1.79
  -2 -11   8   13.63    1.91
  -2 -11   8   16.30    1.84
   1  11  -8    4.57    1.15
  -1 -11   8    2.42    1.19
   0  11  -8    2.66    0.99
   0 -11   8    5.97    1.44
  -1  11  -8    4.24    1.17
   1 -11   8    1.61    1.18
  -2  11  -8    0.26    0.81
   2 -11   8   -0.59    0.98
   3  10  -8   18.01    1.93
  -3 -10   8   14.49    1.85
  -3 -10   8   15.25    1.77
   2  10  -8   24.06    2.13
  -2 -10   8   17.70    2.05
  -2 -10   8   30.04    2.06
   1  10  -8    1.38    0.79
  -1 -10   8   -1.04    0.85
   0  10  -8   -0.30    0.64
   0 -10   8    0.01    0.81
  -1  10  -8    0.14    0.75
   1 -10   8    0.39    0.99
  -2  10  -8    0.37    0.76
   2 -10   8    0.53    0.99
  -3  10  -8   22.35    2.13
   3 -10   8   23.54    2.57
  -4  10  -8    1.47    0.92
   4 -10   8    0.63    1.05
   4   9  -8    1.67    0.99
  -4  -9   8    2.31    0.96
   3   9  -8    7.06    1.32
  -3  -9   8    5.53    1.23
  -3  -9   8    8.12    1.30
   2   9  -8    0.93    0.77
  -2  -9   8    1.08    0.85
  -2  -9   8    1.32    0.79
   1   9  -8    0.64    0.70
  -1  -9   8   -0.39    0.58
  -1  -9   8   -0.27    0.77
   0   9  -8   -0.12    0.62
   0  -9   8   -0.41    0.82
  -1   9  -8    0.60    0.70
   1  -9   8   -0.07    0.82
  -2   9  -8   12.75    1.51
   2  -9   8   15.70    2.03
  -3   9  -8    0.89    0.74
   3  -9   8    0.08    0.86
  -4   9  -8   11.48    1.53
   4  -9   8   12.30    1.92
  -5   9  -8   14.84    1.73
   5  -9   8   10.48    1.91
   5   8  -8    2.98    1.05
  -5  -8   8    3.73    1.14
   4   8  -8    0.40    0.77
  -4  -8   8   -0.31    0.64
   3   8  -8    0.72    0.74
  -3  -8   8    1.67    0.86
  -3  -8   8    1.78    0.79
   2   8  -8    5.13    1.07
  -2  -8   8    5.48    1.14
  -2  -8   8    6.05    1.05
   1   8  -8   15.52    1.56
  -1  -8   8   18.34    1.60
  -1  -8   8   15.44    1.72
   0   8  -8    4.93    1.01
   0  -8   8    5.76    0.95
   0  -8   8    4.10    1.09
  -1   8  -8   17.29    1.60
   1  -8   8   17.50    1.97
  -2   8  -8    9.18    1.26
   2  -8   8    7.17    1.41
  -3   8  -8   32.51    2.00
   3  -8   8   28.37    2.56
  -4   8  -8   29.17    1.94
   4  -8   8   25.21    2.53
  -5   8  -8   24.28    2.00
   5  -8   8   23.34    2.42
  -6   8  -8   18.22    1.91
  -6   8  -8   16.00    1.79
   6  -8   8   18.39    2.30
   6   7  -8    7.71    1.40
  -6  -7   8    8.11    1.41
   5   7  -8   -0.27    0.77
  -5  -7   8   -0.06    0.65
   4   7  -8   11.57    1.50
  -4  -7   8   11.98    1.47
   3   7  -8    0.15    0.70
  -3  -7   8    0.40    0.63
  -3  -7   8    1.05    0.71
   2   7  -8    1.08    0.68
  -2  -7   8   -0.31    0.57
  -2  -7   8    0.85    0.70
   1   7  -8    0.33    0.60
  -1  -7   8   -0.21    0.52
  -1  -7   8    1.48    0.80
   0   7  -8    6.10    1.02
   0  -7   8    8.13    1.34
   0  -7   8    7.44    1.01
  -1   7  -8   73.78    2.67
   1  -7   8   69.05    2.31
   1  -7   8   72.85    3.25
  -2   7  -8   83.41    2.86
   2  -7   8   89.12    3.65
  -3   7  -8   47.90    2.20
   3  -7   8   53.96    2.89
  -4   7  -8   34.48    1.97
  -4   7  -8   39.41    1.97
   4  -7   8   37.90    2.52
  -5   7  -8   -0.44    0.58
  -5   7  -8    0.64    0.68
   5  -7   8    0.90    0.97
  -6   7  -8   -0.91    0.71
   6  -7   8    0.61    0.93
   6   6  -8    3.00    1.09
  -6  -6   8    2.93    1.03
   5   6  -8   -0.23    0.67
  -5  -6   8    1.28    0.80
   4   6  -8   -0.25    0.70
  -4  -6   8    0.53    0.69
   3   6  -8   14.61    1.52
  -3  -6   8   13.57    1.51
  -3  -6   8   14.29    1.37
   2   6  -8    1.85    0.72
  -2  -6   8    2.57    0.74
  -2  -6   8    0.71    0.64
   1   6  -8    0.11    0.53
  -1  -6   8    0.17    0.53
  -1  -6   8    0.08    0.62
   0   6  -8   83.72    2.80
   0  -6   8   81.24    3.18
   0  -6   8   86.12    2.68
  -1   6  -8   78.27    2.64
   1  -6   8   75.48    2.38
   1  -6   8   76.32    3.22
  -2   6  -8   44.21    1.72
  -2   6  -8   40.99    1.89
   2  -6   8   41.40    2.42
  -3   6  -8   55.30    2.09
  -3   6  -8   58.30    2.29
   3  -6   8   48.99    2.69
  -4   6  -8   38.32    1.94
  -4   6  -8   35.72    1.89
   4  -6   8   39.01    2.50
  -5   6  -8   14.35    1.48
  -5   6  -8   18.29    1.57
   5  -6   8   16.04    1.96
  -6   6  -8   16.62    1.72
   6  -6   8   14.88    1.97
  -7   6  -8    0.42    0.82
   7  -6   8   -0.73    0.81
   7   5  -8    2.94    1.13
  -7  -5   8    3.21    1.11
   6   5  -8    6.60    1.32
  -6  -5   8    3.89    1.06
   5   5  -8    0.00    0.72
  -5  -5   8    0.08    0.60
   4   5  -8    2.87    0.85
  -4  -5   8    4.50    0.98
   3   5  -8   51.02    2.32
  -3  -5   8   52.19    2.33
  -3  -5   8   51.59    2.03
   2   5  -8    4.87    0.91
  -2  -5   8    4.67    0.86
  -2  -5   8    4.68    0.91
   1   5  -8   28.77    1.60
  -1  -5   8   26.39    1.71
  -1  -5   8   25.03    1.56
   0   5  -8   77.22    2.56
   0  -5   8   76.32    2.49
   0  -5   8   76.88    2.94
  -1   5  -8   91.73    2.37
  -1   5  -8   87.27    2.68
   1  -5   8   86.69    2.59
   1  -5   8   88.20    3.33
  -2   5  -8    0.77    0.48
  -2   5  -8    0.89    0.52
   2  -5   8    0.64    0.78
   2  -5   8    0.26    0.47
  -3   5  -8    0.54    0.53
  -3   5  -8    0.97    0.55
   3  -5   8    0.69    0.73
  -4   5  -8   -0.30    0.46
  -4   5  -8    0.89    0.57
   4  -5   8   -0.10    0.74
  -5   5  -8   30.63    1.86
   5  -5   8   30.50    2.22
  -6   5  -8    0.70    0.77
   6  -5   8    0.11    0.93
  -7   5  -8    0.80    0.80
   7  -5   8   -0.79    0.90
   7   4  -8    0.39    0.77
  -7  -4   8    3.52    1.13
   6   4  -8    5.21    1.16
  -6  -4   8    3.45    1.02
   5   4  -8    1.20    0.77
  -5  -4   8    0.17    0.70
   4   4  -8   22.60    1.61
  -4  -4   8   22.48    1.66
   3   4  -8  108.61    3.34
  -3  -4   8  106.02    3.33
   2   4  -8   10.54    1.19
  -2  -4   8    9.72    1.01
  -2  -4   8    9.80    1.19
   1   4  -8    0.01    0.51
   1   4  -8    0.29    0.41
  -1  -4   8   -0.04    0.56
  -1  -4   8    0.69    0.55
   0   4  -8    4.15    0.80
   0   4  -8    3.29    0.59
   0  -4   8    3.27    0.73
   0  -4   8    2.70    0.83
  -1   4  -8    6.69    0.80
  -1   4  -8    4.37    0.78
   1  -4   8    4.80    0.80
   1  -4   8    5.80    1.06
  -2   4  -8    0.34    0.48
  -2   4  -8   -0.42    0.44
   2  -4   8    0.59    0.70
   2  -4   8    0.32    0.46
  -3   4  -8    6.36    0.85
  -3   4  -8    6.19    0.90
   3  -4   8    8.88    1.33
  -4   4  -8    1.78    0.71
  -4   4  -8    2.36    0.65
   4  -4   8    1.78    0.90
  -5   4  -8    0.93    0.70
   5  -4   8   -0.02    0.70
  -6   4  -8    7.80    1.24
   6  -4   8    9.94    1.51
   7  -4   8   23.55    2.38
   7   3  -8    1.33    0.84
  -7  -3   8    1.79    0.92
   6   3  -8    6.08    1.16
  -6  -3   8    4.68    1.14
   5   3  -8    0.51    0.71
  -5  -3   8    0.43    0.67
   4   3  -8   23.34    1.63
  -4  -3   8   23.38    1.70
   3   3  -8  119.58    2.98
   3   3  -8  120.27    3.43
  -3  -3   8  117.50    3.50
   2   3  -8    2.55    0.60
   2   3  -8    3.24    0.78
  -2  -3   8    3.22    0.63
  -2  -3   8    2.63    0.80
   1   3  -8    0.33    0.43
   1   3  -8   -0.27    0.50
  -1  -3   8   -0.16    0.48
  -1  -3   8    0.99    0.59
   0   3  -8    5.08    0.69
   0   3  -8    3.58    0.71
   0  -3   8    4.08    0.81
   0  -3   8    4.71    0.91
  -1   3  -8   70.51    2.17
  -1   3  -8   66.32    2.03
   1  -3   8   66.39    2.55
   1  -3   8   69.00    2.29
  -2   3  -8    9.40    0.92
  -2   3  -8   10.24    1.03
   2  -3   8    9.76    1.24
   2  -3   8    8.61    0.98
  -3   3  -8   14.72    1.04
  -3   3  -8   16.52    1.34
   3  -3   8   18.73    1.23
   3  -3   8   17.46    1.63
  -4   3  -8    5.21    0.92
   4  -3   8    7.84    1.26
  -5   3  -8   21.45    1.53
   5  -3   8   26.56    1.96
  -6   3  -8   52.14    2.42
   6  -3   8   55.24    2.88
  -7   3  -8   40.14    2.32
   7  -3   8   37.97    2.59
  -8   3  -8   18.25    1.97
   8   2  -8    0.51    0.85
  -8  -2   8    1.10    1.00
   7   2  -8    0.99    0.81
  -7  -2   8    1.10    0.91
   6   2  -8    4.66    1.03
  -6  -2   8    6.66    1.21
   5   2  -8    0.35    0.65
  -5  -2   8    2.54    0.92
   4   2  -8   38.77    1.99
   4   2  -8   41.58    1.88
  -4  -2   8   45.07    1.92
  -4  -2   8   39.28    2.06
   3   2  -8   22.59    1.40
   3   2  -8   23.46    1.51
  -3  -2   8   23.61    1.58
   2   2  -8    2.23    0.67
   2   2  -8    3.32    0.67
  -2  -2   8    2.08    0.73
   1   2  -8    0.31    0.43
   1   2  -8    0.55    0.49
  -1  -2   8    0.68    0.50
  -1  -2   8    0.50    0.52
   0   2  -8    2.54    0.63
   0   2  -8    2.08    0.54
   0  -2   8    1.16    0.61
   0  -2   8    1.80    0.66
  -1   2  -8    9.16    0.96
  -1   2  -8    8.21    0.85
   1  -2   8    7.99    1.04
   1  -2   8    6.56    0.92
  -2   2  -8   81.57    2.39
  -2   2  -8   77.98    2.14
   2  -2   8   78.13    2.43
   2  -2   8   76.31    2.68
  -3   2  -8   48.18    1.91
  -3   2  -8   50.88    1.62
   3  -2   8   48.13    2.27
   3  -2   8   47.91    1.88
  -4   2  -8  101.73    3.03
   4  -2   8  108.19    2.87
   4  -2   8  102.34    3.52
  -5   2  -8   31.04    1.82
   5  -2   8   30.81    2.06
  -6   2  -8   36.12    2.04
   6  -2   8   44.91    2.64
  -7   2  -8   16.05    1.69
   7  -2   8   16.54    1.98
  -8   2  -8    0.51    0.86
   8  -2   8    1.63    1.06
   8   1  -8   -0.48    0.76
  -8  -1   8   -1.05    0.80
   7   1  -8   11.01    1.53
  -7  -1   8   11.79    1.60
   6   1  -8    2.23    0.84
  -6  -1   8    3.63    1.07
   5   1  -8    0.76    0.64
  -5  -1   8    0.66    0.68
  -5  -1   8    0.65    0.58
   4   1  -8   33.53    1.79
   4   1  -8   30.69    1.74
  -4  -1   8   30.55    1.84
   3   1  -8    2.47    0.71
   3   1  -8    1.03    0.58
  -3  -1   8    0.28    0.61
   2   1  -8   21.33    1.34
   2   1  -8   18.71    1.25
  -2  -1   8   26.15    1.58
   1   1  -8    8.81    0.95
   1   1  -8    5.55    0.80
  -1  -1   8    7.58    1.03
  -1  -1   8    6.48    0.74
   0   1  -8   37.24    1.59
   0   1  -8   41.91    1.60
   0  -1   8   37.61    1.62
   0  -1   8   35.52    1.71
  -1   1  -8    1.39    0.57
  -1   1  -8    1.69    0.50
   1  -1   8    2.76    0.68
   1  -1   8    3.22    0.71
  -2   1  -8   95.96    2.29
  -2   1  -8   97.20    2.72
   2  -1   8  100.30    3.01
   2  -1   8  100.23    2.83
  -3   1  -8  124.36    3.27
   3  -1   8  136.01    3.43
   3  -1   8  129.39    3.67
  -4   1  -8    7.81    1.07
   4  -1   8    7.56    1.00
   4  -1   8    8.24    1.20
  -5   1  -8   18.46    1.60
   5  -1   8   17.77    1.80
  -6   1  -8   15.41    1.55
   6  -1   8   12.31    1.67
  -7   1  -8    0.36    0.71
   7  -1   8    0.58    0.96
  -8   1  -8    3.34    1.04
   8  -1   8    4.17    1.37
   8   0  -8    0.23    0.77
  -8   0   8    1.24    0.95
   7   0  -8    7.08    1.31
  -7   0   8    6.78    1.34
   6   0  -8    0.21    0.64
  -6   0   8   -0.76    0.60
  -6   0   8    0.15    0.72
   5   0  -8    0.18    0.62
  -5   0   8    0.23    0.59
  -5   0   8   -0.04    0.68
   4   0  -8    1.95    0.70
   4   0  -8    2.24    0.77
  -4   0   8    2.78    0.86
   3   0  -8   11.07    1.22
   3   0  -8    8.14    1.03
  -3   0   8    9.16    1.22
   2   0  -8   16.42    1.17
   2   0  -8   16.42    1.17
  -2   0   8   19.87    1.65
   1   0  -8   66.63    2.18
   1   0  -8   65.29    2.10
  -1   0   8   63.18    2.40
   0   0  -8  131.67    3.17
   0   0  -8  131.50    2.93
   0   0   8  132.31    3.01
   0   0   8  130.99    3.50
  -1   0  -8   57.06    1.70
  -1   0  -8   55.51    2.01
   1   0   8   58.18    2.06
   1   0   8   58.24    2.22
  -2   0  -8  126.89    2.60
  -2   0  -8  131.18    3.26
   2   0   8  131.25    3.48
   2   0   8  131.77    3.41
  -3   0  -8  208.49    4.49
   3   0   8  205.01    4.65
   3   0   8  209.02    4.86
  -4   0  -8    0.85    0.57
   4   0   8    0.04    0.49
   4   0   8   -0.36    0.67
  -5   0  -8    1.65    0.68
   5   0   8    0.86    0.79
   5   0   8    1.38    0.66
  -6   0  -8    0.08    0.58
   6   0   8   -0.30    0.83
  -7   0  -8    2.31    0.91
   7   0   8    1.71    1.11
  -8   0  -8    0.16    0.86
   8   0   8    0.72    1.09
   8  -1  -8    4.39    1.24
  -8   1   8    6.18    1.28
   7  -1  -8    7.37    1.28
  -7   1   8    7.86    1.42
  -7   1   8   10.42    1.44
   6  -1  -8    0.17    0.65
  -6   1   8    0.02    0.64
  -6   1   8   -0.03    0.55
   5  -1  -8   -0.34    0.59
  -5   1   8    0.13    0.56
  -5   1   8    0.89    0.74
   4  -1  -8    1.73    0.75
   4  -1  -8    1.76    0.68
  -4   1   8    2.95    0.89
   3  -1  -8   23.27    1.51
   3  -1  -8   23.21    1.46
  -3   1   8   22.93    1.85
   2  -1  -8    2.37    0.66
   2  -1  -8    3.14    0.75
  -2   1   8    2.32    0.77
   1  -1  -8  159.54    3.66
   1  -1  -8  150.77    3.33
  -1   1   8  151.43    3.96
   0  -1  -8  111.59    2.58
   0  -1  -8  109.21    2.92
   0   1   8  107.59    3.19
   0   1   8  112.14    2.62
  -1  -1  -8   88.38    2.09
  -1  -1  -8   87.03    2.56
   1   1   8   90.75    2.52
   1   1   8   85.98    2.86
  -2  -1  -8   99.47    2.83
   2   1   8   97.83    2.90
   2   1   8   95.49    3.05
  -3  -1  -8   37.21    1.80
   3   1   8   36.16    2.00
   3   1   8   38.36    1.91
  -4  -1  -8    4.08    0.83
   4   1   8    3.31    0.84
   4   1   8    3.80    0.97
  -5  -1  -8   29.03    1.72
   5   1   8   26.75    1.72
   5   1   8   32.82    2.20
  -6  -1  -8    3.82    0.90
   6   1   8    2.64    1.06
  -7  -1  -8    7.81    1.31
   7   1   8    8.55    1.57
  -8  -1  -8    0.27    0.79
   8   1   8    0.23    0.99
   8  -2  -8    4.32    1.21
  -8   2   8    5.36    1.30
   7  -2  -8   14.48    1.72
  -7   2   8   14.27    1.73
  -7   2   8   11.93    1.58
   6  -2  -8    0.40    0.68
  -6   2   8   -0.01    0.76
  -6   2   8    0.43    0.68
   5  -2  -8    2.96    0.83
  -5   2   8    2.93    0.94
  -5   2   8    2.61    0.85
   4  -2  -8   37.23    1.91
   4  -2  -8   40.74    2.16
  -4   2   8   38.33    2.06
   3  -2  -8    0.36    0.59
   3  -2  -8   -0.25    0.46
  -3   2   8    0.85    0.64
   2  -2  -8   74.02    2.37
   2  -2  -8   67.56    2.45
  -2   2   8   73.24    2.72
   1  -2  -8   90.77    2.48
   1  -2  -8   95.25    2.80
  -1   2   8   95.83    3.05
   0  -2  -8   10.56    0.91
   0  -2  -8    9.36    1.04
   0   2   8    8.31    0.84
   0   2   8    9.20    1.19
  -1  -2  -8    7.15    0.94
   1   2   8    5.84    1.00
   1   2   8    7.06    0.90
  -2  -2  -8   -0.30    0.43
   2   2   8    1.23    0.63
   2   2   8    0.84    0.62
  -3  -2  -8    0.40    0.51
   3   2   8    0.27    0.63
   3   2   8    0.12    0.56
  -4  -2  -8   46.32    2.06
   4   2   8   42.04    2.17
   4   2   8   47.28    2.38
  -5  -2  -8    0.02    0.53
   5   2   8    0.60    0.84
   5   2   8    1.54    0.73
  -6  -2  -8    3.88    0.98
   6   2   8    3.15    0.96
   6   2   8    2.12    1.08
  -7  -2  -8    1.81    0.88
   7   2   8    2.35    1.13
   7  -3  -8    1.26    0.89
  -7   3   8    1.31    0.85
   6  -3  -8    3.95    1.02
  -6   3   8    3.24    0.97
  -6   3   8    1.77    0.89
   5  -3  -8   18.20    1.70
  -5   3   8   19.77    1.84
  -5   3   8   17.96    1.74
   4  -3  -8  112.38    3.38
   4  -3  -8  107.17    3.55
  -4   3   8  109.28    3.51
   3  -3  -8    9.67    1.23
   3  -3  -8    8.94    1.11
  -3   3   8    8.52    1.22
   2  -3  -8    8.83    0.99
   2  -3  -8    6.12    0.99
  -2   3   8    7.87    1.16
   1  -3  -8   18.81    1.54
   1  -3  -8   17.65    1.13
  -1   3   8   15.80    1.53
   0  -3  -8   43.36    1.91
   0  -3  -8   47.52    1.59
   0   3   8   45.85    2.22
  -1  -3  -8   19.18    1.34
   1   3   8   18.17    1.69
   1   3   8   18.06    1.32
  -2  -3  -8    1.18    0.60
   2   3   8    2.73    0.88
   2   3   8    2.70    0.77
  -3  -3  -8   -0.17    0.47
   3   3   8    0.41    0.62
   3   3   8    0.57    0.66
  -4  -3  -8   14.68    1.42
   4   3   8   16.75    1.69
   4   3   8   14.43    1.61
  -5  -3  -8   16.00    1.54
  -5  -3  -8   19.05    1.87
   5   3   8   14.61    1.73
  -6  -3  -8   24.93    1.75
  -6  -3  -8   28.26    2.09
   6   3   8   30.10    2.53
  -7  -3  -8    0.56    0.76
  -7  -3  -8   -0.50    0.76
   7   3   8   -0.04    0.88
   7  -4  -8    3.62    1.18
  -7   4   8    6.86    1.35
   6  -4  -8    0.97    0.78
  -6   4   8    0.75    0.83
  -6   4   8    2.04    0.89
   5  -4  -8   25.56    1.81
  -5   4   8   33.42    2.06
  -5   4   8   27.21    1.89
   4  -4  -8   22.25    1.94
   4  -4  -8   22.04    1.83
  -4   4   8   25.97    2.07
   3  -4  -8   23.09    1.50
   3  -4  -8   24.60    1.76
  -3   4   8   23.38    1.63
   2  -4  -8   54.62    2.39
   2  -4  -8   53.64    2.08
  -2   4   8   56.29    2.42
   1  -4  -8    9.00    1.16
   1  -4  -8    7.12    0.89
  -1   4   8    8.89    1.28
   0  -4  -8   44.80    2.01
   0   4   8   45.01    2.23
  -1  -4  -8   47.00    2.07
   1   4   8   47.03    1.90
   1   4   8   45.54    2.26
  -2  -4  -8   16.12    1.44
   2   4   8   18.84    1.80
   2   4   8   17.21    1.46
  -3  -4  -8   11.00    1.24
   3   4   8   10.77    1.42
   3   4   8   12.64    1.39
  -4  -4  -8   14.18    1.66
  -4  -4  -8   15.21    1.49
   4   4   8   17.77    1.79
  -5  -4  -8   63.96    2.63
  -5  -4  -8   68.22    3.09
   5   4   8   67.63    3.13
  -6  -4  -8   30.63    1.90
  -6  -4  -8   32.87    2.30
   6   4   8   30.09    2.28
  -7  -4  -8   19.05    2.16
  -7  -4  -8   16.28    1.75
   7   4   8   17.20    2.15
   7  -5  -8    1.65    1.04
  -7   5   8    2.05    0.97
   6  -5  -8    0.96    0.80
  -6   5   8   -0.82    0.64
   5  -5  -8   14.44    1.64
  -5   5   8   11.94    1.51
  -5   5   8   11.14    1.47
   4  -5  -8    4.70    1.08
   4  -5  -8    3.97    0.91
  -4   5   8    4.17    1.03
   3  -5  -8    1.51    0.71
   3  -5  -8    1.12    0.69
  -3   5   8   -0.25    0.65
   2  -5  -8    3.64    0.81
   2  -5  -8    5.31    1.01
  -2   5   8    5.72    1.07
   1  -5  -8   15.92    1.30
   1  -5  -8   14.35    1.44
  -1   5   8   13.20    1.50
   0  -5  -8   17.84    1.58
   0   5   8   16.45    1.66
  -1  -5  -8    0.85    0.60
   1   5   8    0.44    0.57
   1   5   8    0.33    0.60
  -2  -5  -8   45.00    2.06
   2   5   8   49.12    2.25
   2   5   8   43.45    2.32
  -3  -5  -8    8.02    1.11
  -3  -5  -8    9.06    1.36
   3   5   8    5.74    1.13
   3   5   8    5.36    1.11
  -4  -5  -8   90.55    3.57
  -4  -5  -8   90.98    3.06
   4   5   8   89.83    3.43
  -5  -5  -8   58.60    2.93
  -5  -5  -8   58.62    2.51
   5   5   8   62.03    3.10
  -6  -5  -8    3.09    1.16
  -6  -5  -8    4.36    1.04
   6   5   8    2.92    1.21
  -7   6   8    0.12    0.86
   6  -6  -8   -0.16    0.75
  -6   6   8    0.52    0.73
   5  -6  -8    1.70    0.94
  -5   6   8    3.52    1.03
  -5   6   8    3.90    1.04
   4  -6  -8    2.35    0.88
   4  -6  -8    3.42    1.00
  -4   6   8    2.41    0.86
   3  -6  -8    0.18    0.61
   3  -6  -8    0.73    0.68
  -3   6   8    1.74    0.80
   2  -6  -8    0.23    0.61
   2  -6  -8    0.27    0.59
  -2   6   8   -0.14    0.64
   1  -6  -8   14.86    1.56
  -1   6   8   14.58    1.63
   0  -6  -8    9.57    1.22
   0   6   8   10.77    1.39
  -1  -6  -8   30.72    1.82
   1   6   8   36.97    2.16
  -2  -6  -8   32.40    1.81
   2   6   8   30.17    2.11
   2   6   8   32.87    1.94
  -3  -6  -8   19.67    1.96
  -3  -6  -8   22.00    1.82
   3   6   8   19.76    1.83
  -4  -6  -8    9.06    1.50
  -4  -6  -8    9.85    1.30
   4   6   8    9.38    1.46
  -5  -6  -8    9.37    1.54
  -5  -6  -8    6.03    1.08
   5   6   8    6.20    1.36
  -6  -6  -8    0.06    0.70
  -6  -6  -8   -0.16    0.85
   6   6   8    0.88    0.98
   6  -7  -8    1.62    0.98
  -6   7   8    1.02    0.88
   5  -7  -8    2.34    0.98
  -5   7   8    2.59    0.95
   4  -7  -8    0.96    0.76
   4  -7  -8   -0.07    0.65
  -4   7   8   -0.06    0.65
   3  -7  -8    0.90    0.72
   3  -7  -8    0.07    0.77
  -3   7   8    0.37    0.72
   2  -7  -8   45.04    2.12
   2  -7  -8   40.01    2.26
  -2   7   8   42.38    2.33
   1  -7  -8   42.65    2.30
  -1   7   8   48.36    2.48
   0  -7  -8   14.53    1.55
   0   7   8   15.16    1.66
  -1  -7  -8   36.52    2.05
   1   7   8   33.56    2.20
  -2  -7  -8   10.92    1.34
  -2  -7  -8   11.88    1.62
   2   7   8    9.22    1.47
   2   7   8   12.52    1.46
  -3  -7  -8    0.16    0.70
  -3  -7  -8    0.19    0.62
   3   7   8    0.20    0.77
  -4  -7  -8    0.03    0.66
  -4  -7  -8    0.91    0.87
   4   7   8   -0.34    0.81
  -5  -7  -8    0.84    0.90
  -5  -7  -8   -0.32    0.69
   5   7   8    0.68    1.00
   5  -8  -8    1.44    0.91
  -5   8   8    1.29    0.93
   4  -8  -8    1.95    0.88
   4  -8  -8    2.25    1.00
  -4   8   8    0.91    0.80
   3  -8  -8    4.55    1.09
   3  -8  -8    2.57    0.96
  -3   8   8    3.50    1.02
   2  -8  -8   81.41    3.31
  -2   8   8   79.78    3.24
   1  -8  -8   11.27    1.52
  -1   8   8   11.87    1.52
   0  -8  -8   32.63    2.07
   0   8   8   35.11    2.20
  -1  -8  -8   50.75    2.47
   1   8   8   47.87    2.65
  -2  -8  -8    2.26    0.85
  -2  -8  -8    1.33    0.86
   2   8   8    0.31    0.75
  -3  -8  -8    9.76    1.53
  -3  -8  -8   13.03    1.51
   3   8   8   11.12    1.60
  -4  -8  -8    3.40    0.97
  -4  -8  -8    3.42    1.11
   4   8   8    1.79    1.10
  -5  -8  -8    0.64    0.97
  -5  -8  -8   -0.04    0.70
   5   8   8   -0.22    0.99
   4  -9  -8    0.10    0.85
  -4   9   8   -0.05    0.70
   3  -9  -8    3.53    1.15
  -3   9   8    4.66    1.16
   2  -9  -8   32.99    2.22
  -2   9   8   31.86    2.16
   1  -9  -8   26.60    2.23
  -1   9   8   22.78    2.13
   0  -9  -8    1.19    0.85
   0   9   8    0.45    0.79
  -1  -9  -8    1.00    0.79
   1   9   8    0.29    0.69
  -2  -9  -8    0.96    0.79
  -2  -9  -8    0.09    0.82
  -3  -9  -8    2.53    0.95
  -3  -9  -8    3.22    1.09
   3   9   8    5.06    1.38
  -4  -9  -8   -0.49    0.76
   4   9   8   -0.59    0.99
   3 -10  -8    0.45    0.95
   2 -10  -8    0.55    0.90
  -2  10   8    0.92    0.90
   1 -10  -8    6.45    1.33
  -1  10   8    5.90    1.30
   0 -10  -8   -0.94    0.72
   0  10   8    0.82    0.88
  -1 -10  -8    0.33    0.77
   1  10   8    1.04    0.85
  -2 -10  -8    1.94    0.97
  -2 -10  -8    1.25    0.95
   2  10   8    1.09    0.91
   2  10  -9    2.28    0.95
  -2 -10   9    2.27    0.99
  -2 -10   9    2.53    1.16
   1  10  -9   13.01    1.71
  -1 -10   9   13.76    1.93
   0  10  -9   48.09    2.60
   0 -10   9   48.57    3.05
  -1  10  -9    4.15    1.08
   1 -10   9    4.63    1.38
  -2  10  -9    1.13    0.86
   2 -10   9    1.58    1.07
  -3  10  -9   -0.74    0.67
   3 -10   9    0.72    1.01
   4   9  -9    2.50    1.09
  -4  -9   9    1.88    1.00
   3   9  -9   14.39    1.77
  -3  -9   9   11.57    1.60
   2   9  -9    4.29    1.06
  -2  -9   9    3.31    1.08
  -2  -9   9    3.83    1.03
   1   9  -9   24.33    2.12
  -1  -9   9   21.94    2.18
  -1  -9   9   24.40    1.79
   0   9  -9    9.09    1.40
   0  -9   9    8.30    1.60
  -1   9  -9    0.66    0.76
   1  -9   9   -0.28    0.89
  -2   9  -9    0.86    0.74
   2  -9   9   -0.50    0.80
  -3   9  -9    1.13    0.88
   3  -9   9    2.47    1.23
  -4   9  -9    8.54    1.41
   4  -9   9   11.27    1.93
   5   8  -9    5.30    1.31
  -5  -8   9    7.61    1.44
   4   8  -9   25.22    2.24
  -4  -8   9   21.47    2.06
   3   8  -9    1.52    0.85
  -3  -8   9    2.50    0.92
   2   8  -9    4.32    1.06
  -2  -8   9    3.67    1.03
  -2  -8   9    4.99    1.11
   1   8  -9   11.48    1.46
  -1  -8   9   13.27    1.66
  -1  -8   9   11.19    1.37
   0   8  -9    0.45    0.66
   0  -8   9    0.68    0.80
   0  -8   9    1.68    0.72
  -1   8  -9   26.37    2.07
   1  -8   9   25.00    2.32
  -2   8  -9   -0.33    0.64
   2  -8   9   -0.15    0.80
  -3   8  -9    1.42    0.78
   3  -8   9    1.68    1.05
  -4   8  -9    3.87    1.04
   4  -8   9    4.19    1.33
  -5   8  -9    3.05    1.01
   5  -8   9    4.71    1.45
   5   7  -9    2.03    0.99
  -5  -7   9    0.67    0.80
   4   7  -9    8.01    1.37
  -4  -7   9    9.28    1.44
   3   7  -9    0.67    0.74
  -3  -7   9    0.44    0.72
   2   7  -9   -0.50    0.60
  -2  -7   9    0.97    0.71
  -2  -7   9    0.37    0.66
   1   7  -9    2.87    0.89
  -1  -7   9    1.68    0.77
  -1  -7   9    0.40    0.76
   0   7  -9   24.02    1.64
   0  -7   9   26.58    2.25
   0  -7   9   25.97    1.65
  -1   7  -9   -0.41    0.52
   1  -7   9   -0.16    0.76
  -2   7  -9    0.57    0.69
   2  -7   9    1.15    0.89
  -3   7  -9   16.53    1.59
   3  -7   9   15.14    1.97
  -4   7  -9    2.36    0.85
   4  -7   9    2.19    1.14
  -5   7  -9   27.79    1.87
  -5   7  -9   26.46    2.07
   5  -7   9   21.65    2.37
  -6   7  -9   50.79    2.59
   6  -7   9   49.22    3.16
   6   6  -9    1.76    1.04
  -6  -6   9    1.13    0.89
   5   6  -9    5.53    1.21
  -5  -6   9    7.15    1.31
   4   6  -9   -0.54    0.68
  -4  -6   9    0.49    0.75
   3   6  -9    5.69    1.11
  -3  -6   9    5.47    1.10
   2   6  -9    0.10    0.60
  -2  -6   9    0.20    0.58
  -2  -6   9    0.32    0.62
   1   6  -9    0.88    0.62
  -1  -6   9   -0.21    0.51
  -1  -6   9    0.00    0.66
   0   6  -9    6.90    1.05
   0  -6   9    8.01    1.09
   0  -6   9    8.64    1.33
  -1   6  -9    0.08    0.51
   1  -6   9    0.11    0.76
   1  -6   9   -0.19    0.48
  -2   6  -9  118.57    3.46
   2  -6   9  124.89    4.34
  -3   6  -9   70.08    2.57
  -3   6  -9   69.23    2.43
   3  -6   9   68.13    3.26
  -4   6  -9   32.84    1.85
  -4   6  -9   30.48    1.78
   4  -6   9   31.71    2.67
  -5   6  -9   47.10    2.31
   5  -6   9   49.93    3.01
  -6   6  -9   15.91    1.77
   6  -6   9   15.18    2.07
   6   5  -9    0.37    0.85
  -6  -5   9    1.04    0.79
   5   5  -9    3.38    1.00
  -5  -5   9    2.87    0.94
   4   5  -9    5.48    1.10
  -4  -5   9    5.02    1.05
   3   5  -9    1.71    0.84
  -3  -5   9    2.73    0.88
   2   5  -9    8.98    1.22
  -2  -5   9   10.96    1.34
   1   5  -9   13.92    1.41
  -1  -5   9   16.13    1.53
  -1  -5   9   14.41    1.41
   0   5  -9    0.78    0.59
   0  -5   9    0.98    0.73
   0  -5   9   -0.02    0.54
  -1   5  -9   75.03    2.23
  -1   5  -9   69.51    2.45
   1  -5   9   74.44    2.49
   1  -5   9   68.95    2.98
  -2   5  -9   35.40    1.73
  -2   5  -9   39.25    1.72
   2  -5   9   43.56    2.46
   2  -5   9   38.49    1.71
  -3   5  -9   59.82    2.24
  -3   5  -9   53.19    2.12
   3  -5   9   57.67    2.88
  -4   5  -9   35.73    1.93
  -4   5  -9   34.63    1.75
   4  -5   9   35.80    2.41
  -5   5  -9   14.62    1.54
   5  -5   9   10.71    1.69
  -6   5  -9    0.72    0.81
   6  -5   9   -0.23    0.87
  -7   5  -9    2.94    1.08
   7   4  -9    3.00    1.12
  -7  -4   9    2.59    1.08
   6   4  -9    0.39    0.79
  -6  -4   9    1.80    0.91
   5   4  -9    0.56    0.76
  -5  -4   9   -0.29    0.61
   4   4  -9    0.71    0.74
  -4  -4   9    1.18    0.75
   3   4  -9    2.53    0.82
  -3  -4   9    3.55    0.88
   2   4  -9   39.32    2.00
  -2  -4   9   39.64    2.02
   1   4  -9   92.45    2.94
  -1  -4   9   88.49    2.90
  -1  -4   9   91.27    3.00
   0   4  -9   20.62    1.36
   0   4  -9   23.79    1.30
   0  -4   9   23.75    1.71
   0  -4   9   22.29    1.43
  -1   4  -9    7.90    0.98
  -1   4  -9    9.79    1.00
   1  -4   9    8.55    1.07
   1  -4   9   10.66    1.38
  -2   4  -9   55.97    2.08
  -2   4  -9   52.54    2.01
   2  -4   9   53.37    2.05
   2  -4   9   60.08    2.72
  -3   4  -9    0.51    0.54
  -3   4  -9    1.25    0.58
   3  -4   9    1.56    0.87
  -4   4  -9    2.61    0.79
   4  -4   9    5.09    1.21
  -5   4  -9    3.82    0.96
   5  -4   9    3.75    1.17
  -6   4  -9   18.75    1.85
   6  -4   9   17.93    2.08
  -7   4  -9   20.36    2.03
   7  -4   9   16.23    2.07
   7   3  -9    0.69    0.85
  -7  -3   9   -0.38    0.76
   6   3  -9    0.88    0.81
  -6  -3   9   -0.02    0.67
   5   3  -9   18.42    1.82
  -5  -3   9   19.36    1.96
   4   3  -9    0.16    0.62
  -4  -3   9   -0.08    0.67
   3   3  -9    1.88    0.71
  -3  -3   9    2.68    0.80
   2   3  -9  129.47    3.63
   2   3  -9  132.42    3.22
  -2  -3   9  144.52    3.92
   1   3  -9   53.31    2.16
   1   3  -9   59.94    1.98
  -1  -3   9   57.73    2.38
  -1  -3   9   58.86    2.15
   0   3  -9   34.23    1.55
   0   3  -9   34.03    1.64
   0  -3   9   33.70    1.73
   0  -3   9   33.89    1.87
  -1   3  -9   27.39    1.40
  -1   3  -9   29.85    1.46
   1  -3   9   29.91    1.66
   1  -3   9   26.90    1.81
  -2   3  -9    3.60    0.70
  -2   3  -9    5.09    0.82
   2  -3   9    3.40    0.76
   2  -3   9    3.13    0.90
  -3   3  -9   47.75    1.83
  -3   3  -9   51.21    2.09
   3  -3   9   51.65    2.52
   3  -3   9   49.00    2.00
  -4   3  -9    2.06    0.71
   4  -3   9    3.47    1.05
  -5   3  -9   17.89    1.65
   5  -3   9   18.30    1.93
  -6   3  -9    0.20    0.66
   6  -3   9    0.04    0.88
  -7   3  -9    1.16    0.87
   7  -3   9   -0.12    0.96
   7   2  -9    1.75    0.98
  -7  -2   9    1.93    1.05
   6   2  -9    1.03    0.78
  -6  -2   9    0.88    0.88
   5   2  -9   10.17    1.35
  -5  -2   9    8.96    1.38
   4   2  -9    3.53    0.94
  -4  -2   9    3.66    0.91
   3   2  -9   23.00    1.46
   3   2  -9   22.14    1.59
  -3  -2   9   22.26    1.60
   2   2  -9   35.88    1.83
   2   2  -9   33.55    1.62
  -2  -2   9   34.45    1.91
   1   2  -9   24.99    1.38
   1   2  -9   23.89    1.44
  -1  -2   9   23.14    1.56
   0   2  -9    0.96    0.54
   0   2  -9    1.98    0.65
   0  -2   9    3.05    0.78
   0  -2   9    2.01    0.71
  -1   2  -9    5.60    0.82
  -1   2  -9    4.27    0.77
   1  -2   9    6.48    1.00
   1  -2   9    5.72    0.98
  -2   2  -9   -0.39    0.37
  -2   2  -9    0.38    0.48
   2  -2   9   -0.30    0.56
   2  -2   9    0.59    0.55
  -3   2  -9   64.40    2.35
   3  -2   9   70.25    2.42
   3  -2   9   70.07    2.79
  -4   2  -9    0.71    0.57
   4  -2   9    0.62    0.77
  -5   2  -9   20.37    1.71
   5  -2   9   17.73    1.95
  -6   2  -9    5.46    1.12
   6  -2   9    4.83    1.26
  -7   2  -9   38.24    2.34
   7  -2   9   38.46    2.75
   7   1  -9    0.31    0.85
  -7  -1   9    0.59    0.90
   6   1  -9   16.79    1.76
  -6  -1   9   18.97    1.99
   5   1  -9   13.27    1.49
  -5  -1   9   12.85    1.59
   4   1  -9    0.87    0.63
   4   1  -9    0.06    0.57
  -4  -1   9    0.34    0.64
   3   1  -9    3.16    0.79
   3   1  -9    2.50    0.76
  -3  -1   9    3.08    0.88
   2   1  -9   15.18    1.33
   2   1  -9   13.30    1.27
  -2  -1   9    9.07    1.21
   1   1  -9    1.02    0.55
   1   1  -9    0.83    0.55
  -1  -1   9    0.52    0.59
   0   1  -9    4.78    0.77
   0   1  -9    3.62    0.74
   0  -1   9    4.76    0.83
   0  -1   9    3.96    0.84
  -1   1  -9    0.20    0.46
  -1   1  -9    0.29    0.47
   1  -1   9   -0.21    0.50
   1  -1   9   -0.29    0.55
  -2   1  -9    2.46    0.67
   2  -1   9    6.59    1.05
   2  -1   9    5.08    0.93
  -3   1  -9    2.69    0.73
   3  -1   9    3.92    0.83
   3  -1   9    3.95    0.95
  -4   1  -9   21.18    1.47
   4  -1   9   22.42    1.49
   4  -1   9   19.68    1.83
  -5   1  -9   33.04    1.85
   5  -1   9   34.17    2.23
  -6   1  -9   23.53    1.96
   6  -1   9   26.03    2.36
  -7   1  -9   21.74    1.98
   7  -1   9   18.83    2.19
   7   0  -9   -0.60    0.68
  -7   0   9    0.35    0.90
   6   0  -9    9.01    1.35
  -6   0   9    9.36    1.33
  -6   0   9    8.86    1.45
   5   0  -9   19.23    1.76
  -5   0   9   20.53    1.76
  -5   0   9   18.57    1.87
   4   0  -9   -0.16    0.61
   4   0  -9    0.51    0.61
  -4   0   9   -0.75    0.56
   3   0  -9    4.84    0.91
   3   0  -9    4.60    0.90
  -3   0   9    5.20    1.04
   2   0  -9   27.52    1.60
   2   0  -9   25.35    1.45
  -2   0   9   27.88    1.82
   1   0  -9    4.96    0.81
   1   0  -9    4.79    0.86
  -1   0   9    4.25    0.90
   0   0  -9    0.25    0.52
   0   0  -9    1.89    0.56
   0   0   9    1.40    0.67
  -1   0  -9    0.06    0.42
  -1   0  -9    0.68    0.50
   1   0   9    0.03    0.54
   1   0   9    0.02    0.54
  -2   0  -9    1.94    0.64
   2   0   9    1.62    0.74
   2   0   9    1.59    0.70
  -3   0  -9    7.32    1.00
   3   0   9    6.94    1.04
   3   0   9    7.84    1.15
  -4   0  -9   41.12    2.01
   4   0   9   41.79    2.05
   4   0   9   39.10    2.25
  -5   0  -9   40.56    2.09
   5   0   9   47.15    2.20
   5   0   9   45.79    2.56
  -6   0  -9    7.01    1.16
   6   0   9   12.31    1.68
  -7   0  -9   24.17    2.09
   7   0   9   22.11    2.36
   7  -1  -9    0.59    0.76
  -7   1   9    0.05    0.80
  -7   1   9    0.19    0.94
   6  -1  -9   11.24    1.48
  -6   1   9    9.59    1.49
  -6   1   9   12.45    1.53
   5  -1  -9   18.74    1.73
  -5   1   9   21.84    2.03
  -5   1   9   22.31    1.89
   4  -1  -9    3.76    0.93
   4  -1  -9    3.39    0.89
  -4   1   9    3.18    0.94
   3  -1  -9    3.45    0.82
   3  -1  -9    3.70    0.81
  -3   1   9    3.14    0.88
   2  -1  -9    3.56    0.79
   2  -1  -9    3.50    0.72
  -2   1   9    2.71    0.81
   1  -1  -9    5.20    0.80
   1  -1  -9    3.33    0.79
  -1   1   9    3.87    0.90
   0  -1  -9   35.50    1.50
   0  -1  -9   34.84    1.71
   0   1   9   35.10    1.95
  -1  -1  -9   71.50    2.46
   1   1   9   71.52    2.36
   1   1   9   69.29    2.70
  -2  -1  -9   41.67    1.87
   2   1   9   35.08    1.86
   2   1   9   38.41    2.03
  -3  -1  -9   60.67    2.34
   3   1   9   55.90    2.47
   3   1   9   59.53    2.53
  -4  -1  -9   44.49    2.09
   4   1   9   42.07    2.15
   4   1   9   44.79    2.41
  -5  -1  -9    0.68    0.66
   5   1   9    1.71    0.77
   5   1   9    1.17    0.87
  -6  -1  -9    3.10    0.91
   6   1   9    6.02    1.33
  -7  -1  -9    1.57    0.84
   7   1   9    1.48    1.18
   7  -2  -9    2.31    1.03
  -7   2   9    2.63    1.08
  -7   2   9    3.11    1.07
   6  -2  -9    2.33    0.94
  -6   2   9    3.49    1.03
  -6   2   9    4.15    1.15
   5  -2  -9   -0.02    0.68
  -5   2   9    0.13    0.77
  -5   2   9    2.82    0.91
   4  -2  -9   -0.14    0.56
   4  -2  -9    1.10    0.76
  -4   2   9    0.67    0.73
   3  -2  -9   54.96    2.28
   3  -2  -9   56.43    2.47
  -3   2   9   56.48    2.61
   2  -2  -9    8.12    1.14
   2  -2  -9    7.59    0.99
  -2   2   9    7.66    1.17
   1  -2  -9    0.67    0.50
   1  -2  -9    0.75    0.56
  -1   2   9    1.08    0.73
   0  -2  -9   65.77    2.43
   0  -2  -9   74.31    2.12
   0   2   9   67.70    2.73
  -1  -2  -9  123.47    3.42
   1   2   9  120.92    3.16
   1   2   9  125.18    3.81
  -2  -2  -9   78.99    2.68
   2   2   9   84.65    2.78
   2   2   9   76.77    2.94
  -3  -2  -9    4.54    0.89
   3   2   9    3.15    0.92
   3   2   9    4.33    0.95
  -4  -2  -9   59.75    2.46
   4   2   9   54.71    2.52
   4   2   9   57.40    2.72
  -5  -2  -9    0.57    0.68
   5   2   9    0.89    0.73
   5   2   9   -0.51    0.81
  -6  -2  -9    5.96    1.13
   6   2   9    6.68    1.25
   6   2   9    5.14    1.33
  -7  -2  -9    3.53    1.08
   7   2   9    3.71    1.39
   7  -3  -9    1.14    0.94
  -7   3   9    1.22    0.98
   6  -3  -9   20.49    1.94
  -6   3   9   24.67    2.22
  -6   3   9   20.73    1.97
   5  -3  -9    3.50    1.00
   5  -3  -9    2.98    0.96
  -5   3   9    2.42    0.96
  -5   3   9    3.44    0.95
   4  -3  -9    1.63    0.81
   4  -3  -9    0.45    0.59
  -4   3   9    2.07    0.89
   3  -3  -9   61.06    2.60
   3  -3  -9   60.17    2.34
  -3   3   9   59.37    2.64
   2  -3  -9   43.57    1.90
   2  -3  -9   39.66    2.03
  -2   3   9   38.72    2.14
   1  -3  -9   10.99    1.25
   1  -3  -9   15.90    1.13
  -1   3   9   13.65    1.54
   0  -3  -9   42.64    2.01
   0   3   9   42.94    2.26
  -1  -3  -9   76.79    2.69
   1   3   9   75.66    2.98
  -2  -3  -9    2.58    0.75
   2   3   9    2.59    0.83
   2   3   9    3.43    0.91
  -3  -3  -9   21.27    1.50
   3   3   9   20.35    1.76
   3   3   9   20.32    1.85
  -4  -3  -9    0.05    0.54
   4   3   9    0.79    0.73
   4   3   9    0.14    0.72
  -5  -3  -9   18.22    1.71
   5   3   9   20.94    2.05
   5   3   9   17.88    1.85
  -6  -3  -9    0.36    0.67
   6   3   9    0.69    0.95
   6   3   9   -0.20    0.67
  -7  -3  -9   -0.14    0.77
   7   3   9    0.86    1.16
   7  -4  -9    3.32    1.17
  -7   4   9    6.38    1.37
   6  -4  -9    8.01    1.39
  -6   4   9   14.25    1.75
  -6   4   9   14.71    1.77
   5  -4  -9   -0.20    0.67
   5  -4  -9    2.58    0.89
  -5   4   9    2.28    0.85
  -5   4   9    1.78    0.91
   4  -4  -9    8.31    1.33
   4  -4  -9   12.38    1.44
  -4   4   9    7.52    1.29
   3  -4  -9    5.68    1.13
   3  -4  -9    8.88    1.19
  -3   4   9    7.86    1.22
   2  -4  -9   36.02    1.79
   2  -4  -9   37.97    2.05
  -2   4   9   37.09    2.13
   1  -4  -9   36.69    1.97
   1  -4  -9   41.64    1.73
  -1   4   9   36.71    2.17
   0  -4  -9    3.60    0.82
   0   4   9    3.63    0.92
  -1  -4  -9   -0.07    0.54
   1   4   9    0.60    0.66
  -2  -4  -9   22.59    1.57
   2   4   9   25.58    1.88
   2   4   9   23.70    1.70
  -3  -4  -9    2.91    0.80
   3   4   9    3.14    0.96
   3   4   9    4.09    1.04
  -4  -4  -9   -0.36    0.58
   4   4   9   -0.51    0.64
   4   4   9   -0.25    0.77
  -5  -4  -9    0.81    0.71
   5   4   9   -0.64    0.69
   5   4   9    0.70    0.93
  -6  -4  -9    7.25    1.24
   6   4   9    7.06    1.48
   6   4   9    5.45    1.30
   6  -5  -9   11.82    1.65
  -6   5   9   12.40    1.65
   5  -5  -9   -0.05    0.67
  -5   5   9    0.11    0.67
  -5   5   9    0.27    0.79
   4  -5  -9    7.93    1.24
   4  -5  -9    8.45    1.37
  -4   5   9    7.64    1.34
   3  -5  -9   63.58    2.86
   3  -5  -9   63.85    2.59
  -3   5   9   64.74    2.88
   2  -5  -9    2.21    0.83
   2  -5  -9    0.77    0.60
  -2   5   9    0.77    0.72
   1  -5  -9    0.06    0.58
  -1   5   9    0.63    0.69
   0  -5  -9   11.06    1.34
   0   5   9   11.43    1.52
  -1  -5  -9    8.14    1.17
   1   5   9    7.07    1.28
  -2  -5  -9   26.91    1.78
   2   5   9   28.13    1.98
   2   5   9   30.12    1.87
  -3  -5  -9    4.53    0.99
   3   5   9    1.97    0.93
   3   5   9    4.29    1.04
  -4  -5  -9    1.98    0.79
   4   5   9    3.77    1.13
   4   5   9    6.38    1.31
  -5  -5  -9    8.91    1.53
  -5  -5  -9    5.81    1.16
   5   5   9    6.88    1.37
   5   5   9    6.29    1.39
  -6  -5  -9   11.40    1.47
  -6  -5  -9   11.72    1.78
   6   5   9   10.25    1.74
   6  -6  -9    3.27    1.15
  -6   6   9    2.24    0.98
   5  -6  -9   -0.21    0.69
  -5   6   9    0.18    0.84
  -5   6   9    0.62    0.77
   4  -6  -9    6.32    1.23
   4  -6  -9   10.52    1.56
  -4   6   9    7.98    1.39
   3  -6  -9    9.07    1.39
   3  -6  -9    9.12    1.27
  -3   6   9    9.78    1.43
   2  -6  -9    0.98    0.65
   2  -6  -9   -0.77    0.60
  -2   6   9    0.02    0.67
   1  -6  -9    0.61    0.64
  -1   6   9    0.03    0.72
   0  -6  -9   12.31    1.44
   0   6   9   13.12    1.60
  -1  -6  -9    5.16    1.06
   1   6   9    5.15    1.15
  -2  -6  -9    2.28    0.80
   2   6   9    3.83    1.06
  -3  -6  -9   12.13    1.43
   3   6   9   11.10    1.49
   3   6   9   11.85    1.65
  -4  -6  -9   25.25    2.40
  -4  -6  -9   22.35    1.95
   4   6   9   17.58    2.01
   4   6   9   19.39    2.05
  -5  -6  -9   12.71    1.54
  -5  -6  -9   11.79    1.80
   5   6   9   11.68    1.80
   5  -7  -9   -0.41    0.67
  -5   7   9    0.32    0.76
   4  -7  -9    2.45    1.06
   4  -7  -9    1.66    0.92
  -4   7   9    2.68    0.97
   3  -7  -9    2.32    0.88
  -3   7   9    4.99    1.16
   2  -7  -9   11.74    1.58
  -2   7   9   10.21    1.49
   1  -7  -9   11.09    1.48
  -1   7   9    9.90    1.47
   0  -7  -9   14.08    1.65
   0   7   9   12.57    1.61
  -1  -7  -9    6.00    1.18
   1   7   9    5.84    1.21
  -2  -7  -9    3.63    0.97
   2   7   9    5.96    1.30
  -3  -7  -9   25.28    2.06
   3   7   9   22.77    2.25
   3   7   9   24.66    2.17
  -4  -7  -9   26.41    1.86
  -4  -7  -9   27.57    2.52
   4   7   9   28.87    2.48
   4   7   9   26.14    2.47
  -5  -7  -9    2.13    0.97
  -5  -7  -9    2.82    1.15
   5   7   9    3.75    1.36
   4  -8  -9    2.66    1.06
   4  -8  -9    0.39    0.93
   3  -8  -9    3.85    1.11
  -3   8   9    5.21    1.15
   2  -8  -9    3.46    1.11
  -2   8   9    2.98    1.06
   1  -8  -9    9.63    1.50
  -1   8   9   10.05    1.57
   0  -8  -9   49.25    2.55
   0   8   9   41.85    2.50
  -1  -8  -9   10.90    1.47
   1   8   9    9.25    1.52
  -2  -8  -9   30.39    2.01
   2   8   9   29.57    2.55
  -3  -8  -9   21.35    1.98
   3   8   9   21.99    2.25
  -4  -8  -9   -0.40    0.78
  -4  -8  -9    0.86    0.77
   4   8   9    1.05    1.13
   3  -9  -9    3.31    1.16
  -3   9   9    2.86    1.06
   2  -9  -9    0.85    0.88
  -2   9   9   -0.09    0.83
   1  -9  -9   12.30    1.68
  -1   9   9   13.45    1.78
   0  -9  -9   10.31    1.56
   0   9   9   15.22    1.86
  -1  -9  -9   17.04    1.88
   1   9   9   14.25    1.85
  -2  -9  -9    3.05    1.00
   2   9   9    1.42    0.95
  -1  10   9   12.84    1.83
   0  10   9   11.60    1.68
   0  10 -10    1.88    1.01
   0 -10  10    0.79    1.08
  -1  10 -10   34.57    2.36
   3   9 -10    0.31    0.82
   2   9 -10    6.33    1.33
  -2  -9  10    6.65    1.28
   1   9 -10    2.25    0.96
  -1  -9  10    2.19    1.09
  -1  -9  10    4.31    1.05
   0   9 -10   10.80    1.51
   0  -9  10   14.80    1.98
  -1   9 -10   24.21    2.10
   1  -9  10   21.99    2.41
  -2   9 -10   15.20    1.75
   2  -9  10   19.53    2.35
  -3   9 -10    7.42    1.39
   3  -9  10    7.11    1.70
   4   8 -10    0.22    0.93
  -4  -8  10    0.87    0.92
   3   8 -10    8.40    1.43
  -3  -8  10    9.79    1.46
   2   8 -10   11.27    1.55
  -2  -8  10   12.88    1.61
   1   8 -10    5.43    1.16
  -1  -8  10    3.90    1.12
  -1  -8  10    5.28    1.05
   0   8 -10   25.01    2.08
   0  -8  10   29.20    2.53
  -1   8 -10   10.74    1.39
   1  -8  10   15.66    1.99
  -2   8 -10   -0.58    0.69
   2  -8  10   -0.53    0.92
  -3   8 -10    0.84    0.85
   3  -8  10    1.16    1.10
  -4   8 -10    2.13    0.94
   4  -8  10    1.64    1.20
   4   7 -10    2.59    1.04
  -4  -7  10    2.44    1.03
   3   7 -10   16.98    1.81
  -3  -7  10   15.77    1.74
   2   7 -10   32.01    2.06
  -2  -7  10   31.07    2.01
   1   7 -10    5.68    1.15
  -1  -7  10    4.40    1.11
  -1  -7  10    3.92    0.95
   0   7 -10    6.78    1.19
   0  -7  10   10.16    1.57
   0  -7  10    8.91    1.22
  -1   7 -10   -0.11    0.63
   1  -7  10   -0.35    0.76
  -2   7 -10   24.40    1.70
   2  -7  10   27.51    2.55
  -3   7 -10    7.50    1.23
   3  -7  10   10.50    1.80
  -4   7 -10    5.01    1.07
   4  -7  10    5.10    1.48
   5  -7  10    0.84    1.18
   5   6 -10    4.14    1.17
  -5  -6  10    4.81    1.24
   4   6 -10    0.08    0.80
  -4  -6  10    0.10    0.74
   3   6 -10   23.89    2.09
  -3  -6  10   19.51    1.90
   2   6 -10   21.42    1.90
  -2  -6  10   23.02    1.97
   1   6 -10    0.65    0.66
  -1  -6  10    0.67    0.66
   0   6 -10    2.89    0.83
   0  -6  10    2.39    0.77
   0  -6  10    1.60    0.87
  -1   6 -10    0.27    0.65
   1  -6  10   -0.25    0.55
   1  -6  10    0.44    0.84
  -2   6 -10    8.70    1.23
   2  -6  10    7.04    1.42
  -3   6 -10    3.52    0.90
   3  -6  10    2.40    1.08
  -4   6 -10    0.50    0.68
   4  -6  10    1.41    0.97
  -5   6 -10    1.10    0.82
   5  -6  10    0.06    0.96
   6   5 -10    6.53    1.39
  -6  -5  10    5.03    1.30
   5   5 -10   -0.20    0.72
  -5  -5  10    0.71    0.86
   4   5 -10    0.74    0.79
  -4  -5  10    0.25    0.67
   3   5 -10    4.35    1.02
  -3  -5  10    3.44    1.02
   2   5 -10    0.90    0.73
  -2  -5  10    0.85    0.69
   1   5 -10   -0.17    0.61
  -1  -5  10    0.01    0.57
   0   5 -10    7.96    1.14
   0  -5  10    7.45    1.15
   0  -5  10    8.13    1.32
  -1   5 -10    3.92    0.89
   1  -5  10    6.48    1.28
   1  -5  10    5.05    0.96
  -2   5 -10    0.88    0.59
  -2   5 -10   -0.26    0.57
   2  -5  10    2.08    0.98
  -3   5 -10   20.34    1.64
  -3   5 -10   18.06    1.53
   3  -5  10   17.94    2.03
  -4   5 -10   48.80    2.27
   4  -5  10   51.33    2.94
  -5   5 -10   27.42    1.91
   5  -5  10   26.85    2.54
  -6   5 -10   16.82    1.83
   6  -5  10   14.25    2.00
   6   4 -10    4.70    1.19
  -6  -4  10    3.64    1.18
   5   4 -10    0.47    0.75
  -5  -4  10   -0.17    0.69
   4   4 -10   -0.40    0.66
  -4  -4  10    1.43    0.80
   3   4 -10    0.02    0.68
  -3  -4  10    1.54    0.78
   2   4 -10   52.43    2.43
  -2  -4  10   51.88    2.42
   1   4 -10    1.64    0.75
  -1  -4  10    0.92    0.66
   0   4 -10   86.17    2.56
   0   4 -10   85.94    2.86
   0  -4  10   80.89    2.88
   0  -4  10   82.72    3.10
  -1   4 -10   75.86    2.43
  -1   4 -10   77.09    2.59
   1  -4  10   74.65    2.70
   1  -4  10   75.61    3.10
  -2   4 -10    7.77    1.05
  -2   4 -10    6.03    0.94
   2  -4  10    7.66    1.33
   2  -4  10    7.37    1.06
  -3   4 -10   78.96    2.68
   3  -4  10   71.13    3.21
  -4   4 -10   54.50    2.41
   4  -4  10   57.62    2.99
  -5   4 -10    4.54    1.02
   5  -4  10    3.34    1.15
  -6   4 -10   22.92    2.04
   6  -4  10   26.80    2.58
   6   3 -10    2.65    1.03
  -6  -3  10    2.28    0.97
   5   3 -10    0.96    0.78
  -5  -3  10    2.06    0.93
   4   3 -10    7.19    1.21
  -4  -3  10    7.12    1.27
   3   3 -10    0.42    0.66
  -3  -3  10    1.18    0.74
   2   3 -10    2.77    0.85
  -2  -3  10    3.40    0.91
   1   3 -10    6.35    1.03
   1   3 -10    5.25    0.84
  -1  -3  10    5.80    1.05
   0   3 -10   51.36    2.10
   0   3 -10   48.03    1.93
   0  -3  10   51.38    2.30
  -1   3 -10   98.48    2.83
  -1   3 -10   94.40    2.83
   1  -3  10   94.68    3.07
   1  -3  10   97.31    3.37
  -2   3 -10   84.03    2.72
  -2   3 -10   83.82    2.53
   2  -3  10   87.98    2.86
   2  -3  10   78.03    3.12
  -3   3 -10   25.37    1.64
   3  -3  10   26.90    1.63
   3  -3  10   27.65    2.25
  -4   3 -10    6.13    1.04
   4  -3  10    5.81    1.20
  -5   3 -10    0.14    0.72
   5  -3  10    0.87    0.93
  -6   3 -10   -0.16    0.67
   6  -3  10    0.62    0.99
   6   2 -10    0.22    0.73
  -6  -2  10    0.50    0.84
   5   2 -10    3.48    0.94
  -5  -2  10    2.52    0.93
   4   2 -10    1.80    0.78
  -4  -2  10    3.40    1.01
   3   2 -10    7.99    1.17
   3   2 -10    7.96    1.12
  -3  -2  10    9.20    1.33
   2   2 -10    1.44    0.68
   2   2 -10    1.64    0.66
  -2  -2  10    2.09    0.78
   1   2 -10   34.65    1.75
   1   2 -10   36.49    1.72
  -1  -2  10   30.87    1.85
   0   2 -10  114.95    3.12
   0   2 -10  113.81    3.15
   0  -2  10  114.13    3.51
  -1   2 -10    0.89    0.55
  -1   2 -10    1.18    0.56
   1  -2  10    1.49    0.72
   1  -2  10    1.31    0.71
  -2   2 -10   26.84    1.56
   2  -2  10   25.56    1.65
   2  -2  10   27.07    1.87
  -3   2 -10    9.58    1.17
   3  -2  10    7.26    1.24
   3  -2  10    9.86    1.21
  -4   2 -10   12.11    1.36
   4  -2  10   10.03    1.49
  -5   2 -10   12.38    1.47
   5  -2  10   11.33    1.69
  -6   2 -10    0.70    0.75
   6  -2  10    1.19    1.08
   7   1 -10    6.49    1.32
  -7  -1  10    4.55    1.34
   6   1 -10    4.24    1.09
  -6  -1  10    2.81    1.03
   5   1 -10    2.81    0.94
  -5  -1  10    2.27    0.99
   4   1 -10   23.38    1.66
   4   1 -10   19.95    1.78
  -4  -1  10   16.66    1.78
   3   1 -10   21.59    1.56
   3   1 -10   20.50    1.68
  -3  -1  10   21.79    1.95
   2   1 -10    0.02    0.53
   2   1 -10   -0.12    0.52
  -2  -1  10    0.12    0.59
   1   1 -10   48.06    2.00
   1   1 -10   48.94    2.02
  -1  -1  10   52.88    2.39
   0   1 -10   31.89    1.60
   0   1 -10   27.04    1.58
   0  -1  10   27.13    1.73
  -1   1 -10    2.76    0.65
  -1   1 -10    2.20    0.70
   1  -1  10    2.39    0.80
   1  -1  10    2.47    0.80
  -2   1 -10    0.96    0.58
   2  -1  10   -0.31    0.62
   2  -1  10    0.35    0.56
  -3   1 -10    1.58    0.73
   3  -1  10    1.25    0.81
   3  -1  10    0.35    0.63
  -4   1 -10   10.77    1.31
   4  -1  10    6.92    1.29
   4  -1  10    7.59    1.15
  -5   1 -10   10.51    1.35
   5  -1  10    9.95    1.57
  -6   1 -10    2.18    0.96
   6  -1  10    2.04    1.15
  -7   1 -10    2.60    1.00
   7   0 -10    0.62    0.90
  -7   0  10   -1.07    0.85
   6   0 -10   -0.47    0.66
  -6   0  10   -0.01    0.86
   5   0 -10   17.72    1.79
  -5   0  10   21.80    1.88
  -5   0  10   19.79    2.01
   4   0 -10   23.58    1.70
   4   0 -10   29.79    1.94
  -4   0  10   26.80    1.94
   3   0 -10   27.53    1.69
   3   0 -10   32.62    1.86
  -3   0  10   27.45    1.90
   2   0 -10    0.90    0.64
   2   0 -10    1.12    0.59
  -2   0  10    0.48    0.63
   1   0 -10   27.69    1.61
   1   0 -10   28.38    1.55
  -1   0  10   28.53    1.83
   0   0 -10    0.00    0.48
   0   0 -10    0.49    0.48
   0   0  10   -0.27    0.52
  -1   0 -10   22.93    1.48
   1   0  10   22.72    1.67
  -2   0 -10    0.39    0.54
   2   0  10    0.36    0.61
   2   0  10   -0.40    0.67
  -3   0 -10    7.95    1.14
   3   0  10    7.51    1.17
   3   0  10    6.42    1.13
  -4   0 -10    2.82    0.78
   4   0  10    3.27    0.90
   4   0  10    2.89    0.99
  -5   0 -10    0.52    0.68
   5   0  10    0.89    0.86
  -6   0 -10   32.80    2.12
   6   0  10   28.60    2.56
   7  -1 -10    2.41    1.06
  -7   1  10    2.33    1.14
   6  -1 -10    0.73    0.82
  -6   1  10    0.56    0.73
  -6   1  10    0.30    0.82
   5  -1 -10    4.87    1.16
   5  -1 -10    1.79    0.83
  -5   1  10    4.66    1.07
  -5   1  10    4.06    1.11
   4  -1 -10   67.19    2.78
   4  -1 -10   69.59    2.90
  -4   1  10   71.27    3.05
   3  -1 -10    8.13    1.13
   3  -1 -10    7.97    1.20
  -3   1  10    6.67    1.26
   2  -1 -10    2.83    0.83
   2  -1 -10    2.45    0.74
  -2   1  10    3.56    0.91
   1  -1 -10    8.82    1.03
   1  -1 -10    9.36    1.17
  -1   1  10   10.27    1.36
   0  -1 -10   19.82    1.23
   0  -1 -10   20.66    1.66
   0   1  10   22.15    1.91
  -1  -1 -10    9.61    1.20
   1   1  10    7.37    1.15
  -2  -1 -10    5.28    0.93
   2   1  10    5.17    1.04
   2   1  10    4.83    0.96
  -3  -1 -10   40.41    2.02
   3   1  10   39.94    2.19
   3   1  10   38.35    2.13
  -4  -1 -10    1.40    0.75
   4   1  10    0.71    0.85
   4   1  10    1.59    0.77
  -5  -1 -10   50.75    2.45
   5   1  10   48.88    2.48
   5   1  10   54.97    2.91
  -6  -1 -10   39.95    2.27
   6   1  10   38.95    2.71
   6  -2 -10    1.35    0.91
  -6   2  10    0.80    0.84
  -6   2  10    2.42    1.04
   5  -2 -10    3.18    0.98
   5  -2 -10    1.61    0.81
  -5   2  10    1.91    0.98
  -5   2  10    1.95    0.82
   4  -2 -10    0.39    0.64
   4  -2 -10    0.20    0.74
  -4   2  10    0.08    0.67
   3  -2 -10    5.60    1.01
   3  -2 -10    5.79    1.06
  -3   2  10    7.38    1.28
   2  -2 -10    1.59    0.70
   2  -2 -10   -0.21    0.52
  -2   2  10    0.15    0.63
   1  -2 -10    0.57    0.55
   1  -2 -10    0.84    0.63
  -1   2  10    0.53    0.64
   0  -2 -10    0.07    0.59
   0   2  10    1.24    0.71
  -1  -2 -10    3.03    0.82
   1   2  10    3.53    1.00
  -2  -2 -10   18.73    1.61
   2   2  10   17.06    1.55
   2   2  10   17.75    1.76
  -3  -2 -10   27.69    1.73
   3   2  10   32.82    2.08
   3   2  10   31.58    2.11
  -4  -2 -10   24.37    1.95
   4   2  10   22.65    2.05
   4   2  10   25.88    1.89
  -5  -2 -10   29.10    1.90
   5   2  10   29.60    2.48
   5   2  10   25.86    2.16
  -6  -2 -10   12.00    1.53
   6   2  10   14.64    1.99
   6  -3 -10    2.31    0.94
  -6   3  10   -0.07    0.94
  -6   3  10    1.23    0.88
   5  -3 -10    6.95    1.33
   5  -3 -10    6.76    1.26
  -5   3  10    6.21    1.34
   4  -3 -10    2.37    0.89
   4  -3 -10    2.89    0.89
  -4   3  10    2.54    1.00
   3  -3 -10   11.46    1.33
   3  -3 -10   14.35    1.65
  -3   3  10   12.76    1.61
   2  -3 -10    7.57    1.22
   2  -3 -10    9.88    1.16
  -2   3  10    7.27    1.25
   1  -3 -10   22.60    1.85
   1  -3 -10   16.94    1.23
  -1   3  10   21.23    1.94
   0  -3 -10   27.52    1.73
   0   3  10   28.53    1.96
  -1  -3 -10   46.13    2.19
   1   3  10   45.70    2.45
  -2  -3 -10   48.12    2.26
   2   3  10   46.85    2.49
  -3  -3 -10    4.99    1.02
   3   3  10    2.68    0.99
   3   3  10    4.05    1.04
  -4  -3 -10    2.12    0.79
   4   3  10    0.47    0.84
   4   3  10    2.17    0.94
  -5  -3 -10   13.64    1.59
   5   3  10   16.23    1.95
   5   3  10   16.95    1.86
  -6  -3 -10   -0.15    0.75
   6   3  10    0.16    0.81
   6   3  10   -0.52    0.91
   6  -4 -10    0.35    0.89
  -6   4  10    0.13    0.90
  -6   4  10    0.25    0.73
   5  -4 -10    2.87    1.02
   5  -4 -10    2.12    0.90
  -5   4  10    2.17    1.08
  -5   4  10    1.69    0.86
   4  -4 -10    3.95    1.01
   4  -4 -10    4.47    1.17
  -4   4  10    4.66    1.19
   3  -4 -10    0.98    0.69
   3  -4 -10    1.16    0.83
  -3   4  10    0.18    0.81
   2  -4 -10    6.40    1.01
   2  -4 -10    5.50    1.12
  -2   4  10    5.49    1.16
   1  -4 -10   64.24    2.73
  -1   4  10   69.08    3.03
   0  -4 -10    9.86    1.30
   0   4  10   10.91    1.49
  -1  -4 -10   76.15    2.91
   1   4  10   77.06    3.29
  -2  -4 -10   72.23    2.83
   2   4  10   70.72    3.10
  -3  -4 -10    2.81    0.85
   3   4  10    1.16    0.86
   3   4  10    1.04    0.83
  -4  -4 -10    0.54    0.73
   4   4  10    1.22    0.85
   4   4  10    0.83    0.93
  -5  -4 -10   -0.97    0.58
   5   4  10    0.42    0.86
   5   4  10   -0.04    0.93
  -6  -4 -10    0.57    0.81
   6   4  10    0.21    1.08
   6   4  10    0.78    0.93
   6  -5 -10    0.37    0.90
  -6   5  10    0.37    0.86
   5  -5 -10    8.88    1.47
   5  -5 -10    7.32    1.39
  -5   5  10   10.54    1.67
  -5   5  10    9.24    1.47
   4  -5 -10    4.82    1.20
   4  -5 -10    3.47    1.00
  -4   5  10    2.88    1.03
   3  -5 -10    0.44    0.76
   3  -5 -10   -0.29    0.56
  -3   5  10    0.17    0.68
   2  -5 -10   23.72    2.08
  -2   5  10   23.66    2.13
   1  -5 -10   30.77    2.04
  -1   5  10   31.96    2.20
   0  -5 -10   15.91    1.68
   0   5  10   15.36    1.77
  -1  -5 -10   27.66    1.86
   1   5  10   31.24    2.22
  -2  -5 -10    3.47    0.93
   2   5  10    4.24    1.11
  -3  -5 -10    1.10    0.79
   3   5  10   -0.05    0.80
  -4  -5 -10    5.13    1.09
   4   5  10    6.60    1.40
   4   5  10    6.94    1.37
  -5  -5 -10    0.10    0.75
   5   5  10   -0.43    0.96
   5   5  10    1.15    0.94
   5  -6 -10   18.61    2.01
  -5   6  10   17.41    2.02
  -5   6  10   16.12    1.88
   4  -6 -10    3.42    1.10
   4  -6 -10    2.01    0.90
  -4   6  10    1.90    1.00
   3  -6 -10    0.10    0.73
   3  -6 -10    1.23    0.80
  -3   6  10    1.02    0.89
   2  -6 -10   12.26    1.66
  -2   6  10   11.21    1.57
   1  -6 -10    0.18    0.70
  -1   6  10   -0.24    0.71
   0  -6 -10    0.26    0.70
   0   6  10    0.54    0.80
  -1  -6 -10   12.83    1.55
   1   6  10   12.19    1.65
  -2  -6 -10   -0.11    0.62
   2   6  10    0.24    0.75
  -3  -6 -10   15.65    1.71
   3   6  10   15.62    1.95
  -4  -6 -10    2.70    0.96
   4   6  10    1.94    1.02
   4   6  10    3.34    1.20
   4  -7 -10   14.16    1.77
   4  -7 -10   11.36    1.67
  -4   7  10   14.74    1.90
   3  -7 -10    0.29    0.85
  -3   7  10    0.60    0.88
   2  -7 -10    4.50    1.13
  -2   7  10    2.83    1.06
   1  -7 -10    1.01    0.80
  -1   7  10    0.75    0.90
   0  -7 -10    7.06    1.27
   0   7  10    5.80    1.35
  -1  -7 -10    1.27    0.79
   1   7  10    0.63    0.83
  -2  -7 -10    0.39    0.73
   2   7  10   -0.70    0.68
  -3  -7 -10    0.71    0.78
   3   7  10    0.54    0.82
  -4  -7 -10    4.50    1.18
   4   7  10    3.25    1.19
   3  -8 -10    3.26    1.18
  -3   8  10    4.02    1.21
   2  -8 -10    1.17    0.87
  -2   8  10    0.73    0.91
   1  -8 -10    0.47    0.88
  -1   8  10   -0.26    0.71
   0  -8 -10    1.75    0.94
   0   8  10    0.37    0.89
  -1  -8 -10    0.32    0.76
   1   8  10    1.03    0.88
  -2  -8 -10    1.52    0.93
   2   8  10    1.00    0.89
   3   8  10    2.72    1.13
   1  -9 -10    8.26    1.53
  -1   9  10   10.10    1.69
   0  -9 -10    0.05    0.81
   0   9  10    0.73    0.89
   0   9 -11    0.69    0.86
   0  -9  11   -0.22    0.98
  -1   9 -11   -0.71    0.66
   2   8 -11    1.83    0.99
  -2  -8  11    2.75    1.00
   1   8 -11    3.61    1.07
  -1  -8  11    0.90    0.84
   0   8 -11    1.16    0.79
   0  -8  11    0.42    1.00
  -1   8 -11    7.40    1.30
   1  -8  11    7.56    1.56
  -2   8 -11   46.38    2.53
   2  -8  11   47.65    3.14
  -3   8 -11   27.96    1.98
   3  -8  11   26.75    2.78
   3   7 -11    0.02    0.86
  -3  -7  11    0.75    0.80
   2   7 -11    8.86    1.43
  -2  -7  11    9.11    1.46
   1   7 -11    8.62    1.36
  -1  -7  11    7.75    1.29
   0   7 -11    8.72    1.37
   0  -7  11   11.89    1.49
  -1   7 -11    4.15    1.02
   1  -7  11    5.09    1.32
  -2   7 -11   26.00    1.86
   2  -7  11   25.80    2.56
  -3   7 -11   11.31    1.48
   3  -7  11   11.38    1.91
   4  -7  11    0.18    1.06
   4   6 -11    3.53    1.15
  -4  -6  11    6.05    1.29
   3   6 -11    0.98    0.91
  -3  -6  11    0.11    0.75
   2   6 -11   24.48    2.12
  -2  -6  11   24.33    2.12
   1   6 -11   53.11    2.61
  -1  -6  11   58.72    2.70
   0   6 -11   -0.19    0.67
   0  -6  11    0.97    0.76
  -1   6 -11   16.59    1.62
   1  -6  11   18.87    2.08
  -2   6 -11    1.78    0.82
   2  -6  11    1.00    1.00
  -3   6 -11   10.48    1.34
   3  -6  11   10.10    1.72
   4  -6  11   15.16    2.08
  -5   6 -11    1.08    0.84
   5   5 -11   15.47    1.94
  -5  -5  11   11.98    1.68
   4   5 -11    1.79    0.96
  -4  -5  11    3.98    1.14
   3   5 -11    8.61    1.35
  -3  -5  11    9.12    1.47
   2   5 -11   22.01    2.02
  -2  -5  11   27.67    1.98
   1   5 -11    4.54    1.02
  -1  -5  11    4.34    1.02
   0   5 -11    7.35    1.15
   0  -5  11    6.89    1.18
  -1   5 -11    1.13    0.75
   1  -5  11    0.15    0.66
   1  -5  11    1.74    0.97
  -2   5 -11    0.41    0.65
   2  -5  11   -1.54    0.68
  -3   5 -11   25.25    1.70
   3  -5  11   25.74    2.44
  -4   5 -11   20.97    1.85
   4  -5  11   19.48    2.23
  -5   5 -11    6.44    1.27
   5  -5  11    5.52    1.53
   5   4 -11    3.00    1.08
  -5  -4  11    3.11    1.12
   4   4 -11    4.18    1.11
  -4  -4  11    4.14    1.14
   3   4 -11    2.41    0.92
  -3  -4  11    0.99    0.77
   2   4 -11   11.55    1.43
  -2  -4  11    9.76    1.40
   1   4 -11    1.29    0.73
  -1  -4  11    0.58    0.74
   0   4 -11   17.15    1.59
   0  -4  11   12.46    1.49
  -1   4 -11    6.95    1.09
  -1   4 -11    8.77    1.09
   1  -4  11    8.25    1.39
   1  -4  11    5.89    1.09
  -2   4 -11    0.08    0.58
  -2   4 -11    0.63    0.60
   2  -4  11   -0.01    0.59
   2  -4  11    0.19    0.81
  -3   4 -11    1.93    0.79
   3  -4  11    2.27    1.04
  -4   4 -11    2.37    0.90
   4  -4  11    4.03    1.21
  -5   4 -11    4.98    1.16
   5  -4  11    3.78    1.32
  -6  -3  11    0.55    0.86
   5   3 -11    3.44    1.16
  -5  -3  11    1.17    0.94
   4   3 -11    1.22    0.85
  -4  -3  11   -0.19    0.66
   3   3 -11    0.33    0.71
  -3  -3  11    0.24    0.70
   2   3 -11    4.17    0.94
  -2  -3  11    3.73    0.97
   1   3 -11   -0.34    0.60
  -1  -3  11   -0.35    0.66
   0   3 -11    1.09    0.70
   0   3 -11    1.52    0.68
   0  -3  11    1.27    0.78
  -1   3 -11   10.70    1.20
  -1   3 -11   10.24    1.21
   1  -3  11   10.81    1.38
  -2   3 -11   19.10    1.58
   2  -3  11   16.69    1.60
   2  -3  11   17.12    1.83
  -3   3 -11   18.44    1.67
  -4   3 -11   73.17    2.89
   4  -3  11   71.16    3.31
  -5   3 -11   34.77    2.14
   5  -3  11   30.97    2.37
  -6   3 -11    0.13    0.79
   6  -3  11    2.32    1.15
   6   2 -11    4.03    1.20
  -6  -2  11    2.51    1.14
   5   2 -11    9.65    1.45
  -5  -2  11   10.47    1.57
   4   2 -11    1.35    0.84
  -4  -2  11    0.60    0.74
   3   2 -11    9.00    1.29
  -3  -2  11    9.35    1.37
   2   2 -11    1.21    0.68
   2   2 -11    0.52    0.65
  -2  -2  11    0.69    0.74
   1   2 -11    1.81    0.70
  -1  -2  11    3.06    0.91
   0   2 -11    0.48    0.58
   0   2 -11   -0.06    0.53
   0  -2  11    0.93    0.75
  -1   2 -11   87.20    2.75
  -1   2 -11   86.11    2.84
   1  -2  11   84.40    3.11
  -2   2 -11   65.82    2.52
   2  -2  11   72.50    2.80
   2  -2  11   70.02    2.95
  -3   2 -11   75.46    2.83
   3  -2  11   69.69    3.14
   3  -2  11   76.50    2.86
  -4   2 -11   38.32    2.10
   4  -2  11   37.13    2.34
  -5   2 -11   22.92    1.97
   5  -2  11   28.14    2.49
  -6   2 -11    0.31    0.81
   6  -2  11    1.47    1.13
   6   1 -11    7.60    1.44
  -6  -1  11    8.65    1.56
   5   1 -11    5.90    1.26
  -5  -1  11    6.57    1.38
   4   1 -11    0.17    0.65
  -4  -1  11   -0.40    0.64
   3   1 -11    0.78    0.72
   3   1 -11    0.99    0.74
  -3  -1  11    2.08    0.86
   2   1 -11   19.04    1.67
   2   1 -11   16.87    1.57
  -2  -1  11   14.51    1.66
   1   1 -11    3.76    0.85
   1   1 -11    2.65    0.79
  -1  -1  11    3.40    0.98
   0   1 -11   21.99    1.44
   0   1 -11   25.63    1.62
   0  -1  11   20.35    1.83
  -1   1 -11   53.64    2.29
   1  -1  11   55.85    2.56
  -2   1 -11   36.32    1.93
   2  -1  11   31.72    1.94
  -3   1 -11   14.83    1.55
   3  -1  11   17.65    1.78
   3  -1  11   18.03    1.72
  -4   1 -11   22.73    1.89
   4  -1  11   23.64    2.16
  -5   1 -11    0.52    0.76
   5  -1  11    0.75    0.97
  -6   1 -11   19.88    1.98
   6  -1  11   22.32    2.40
   6   0 -11    1.21    0.97
  -6   0  11    2.69    1.16
   5   0 -11    2.58    0.98
   5   0 -11    4.63    1.16
  -5   0  11    4.60    1.26
   4   0 -11    2.95    0.97
   4   0 -11    0.80    0.81
  -4   0  11    1.72    0.90
   3   0 -11   31.69    1.86
   3   0 -11   30.90    1.91
  -3   0  11   31.01    2.09
   2   0 -11   28.76    1.73
   2   0 -11   36.19    2.02
  -2   0  11   28.23    1.97
   1   0 -11    5.33    1.00
   1   0 -11    5.89    0.95
  -1   0  11    3.33    0.95
   0   0 -11    4.59    0.96
   0   0 -11    3.87    0.79
   0   0  11    4.43    1.05
  -1   0 -11   16.63    1.58
   1   0  11   16.69    1.71
  -2   0 -11    1.11    0.68
   2   0  11    1.39    0.77
  -3   0 -11    3.70    0.93
   3   0  11    3.60    0.99
   3   0  11    3.59    1.06
  -4   0 -11    0.97    0.74
   4   0  11    0.45    0.73
   4   0  11    0.35    0.86
  -5   0 -11    0.38    0.71
   5   0  11    2.61    1.16
  -6   0 -11    3.47    1.03
   6   0  11    2.47    1.28
  -6   1  11   12.24    1.83
  -6   1  11   11.65    1.64
   5  -1 -11    2.42    1.02
   5  -1 -11    2.36    0.98
  -5   1  11    1.27    0.93
   4  -1 -11   -0.06    0.71
   4  -1 -11    0.90    0.79
  -4   1  11    1.00    0.85
   3  -1 -11   37.01    2.05
   3  -1 -11   34.23    2.06
  -3   1  11   35.62    2.30
   2  -1 -11   61.88    2.63
   2  -1 -11   60.65    2.45
  -2   1  11   54.84    2.72
   1  -1 -11   24.98    1.52
   1  -1 -11   21.91    1.82
  -1   1  11   22.90    2.06
   0  -1 -11    9.67    1.29
   0   1  11   11.19    1.47
  -1  -1 -11    2.44    0.81
   1   1  11    2.66    0.90
  -2  -1 -11    2.70    0.81
   2   1  11    2.74    0.92
  -3  -1 -11    5.90    1.07
   3   1  11    6.21    1.22
   3   1  11    5.35    1.17
  -4  -1 -11    4.67    1.05
   4   1  11    3.90    1.16
   4   1  11    3.13    1.00
  -5  -1 -11    1.92    0.87
   5   1  11    4.87    1.31
   5   1  11    2.88    1.02
  -6  -1 -11    5.61    1.19
   6   1  11    7.82    1.59
   6  -2 -11    2.85    1.06
  -6   2  11    5.11    1.35
  -6   2  11    4.12    1.19
   5  -2 -11    6.11    1.33
   5  -2 -11    5.81    1.19
  -5   2  11    6.55    1.42
   4  -2 -11   11.58    1.60
   4  -2 -11    9.67    1.36
  -4   2  11    8.93    1.51
   3  -2 -11   14.08    1.49
   3  -2 -11   11.63    1.54
  -3   2  11    6.78    1.30
   2  -2 -11   17.30    1.73
   2  -2 -11   21.22    1.52
  -2   2  11   18.77    1.92
   1  -2 -11    0.08    0.60
  -1   2  11    0.24    0.67
   0  -2 -11    3.17    0.91
   0   2  11    1.71    0.86
  -1  -2 -11    1.55    0.76
   1   2  11    1.99    0.87
  -2  -2 -11   24.96    1.79
   2   2  11   23.95    2.15
  -3  -2 -11    5.45    1.05
   3   2  11    4.51    1.12
  -4  -2 -11   10.15    1.37
   4   2  11   11.80    1.61
   4   2  11   12.33    1.67
  -5  -2 -11    2.88    1.00
   5   2  11    4.84    1.38
   5   2  11    1.72    0.93
   5  -3 -11    1.07    0.83
   5  -3 -11    1.75    0.99
  -5   3  11    2.31    1.07
   4  -3 -11    2.87    0.93
   4  -3 -11    4.49    1.18
  -4   3  11    3.35    1.12
   3  -3 -11   25.90    2.22
   3  -3 -11   25.42    1.74
  -3   3  11   28.01    2.07
   2  -3 -11    2.38    0.91
   2  -3 -11    2.24    0.76
  -2   3  11    2.30    0.92
   1  -3 -11    9.80    1.36
  -1   3  11   11.11    1.54
   0  -3 -11    3.64    0.93
   0   3  11    3.74    1.03
  -1  -3 -11    0.16    0.62
   1   3  11    1.02    0.83
  -2  -3 -11    0.85    0.66
   2   3  11   -0.83    0.66
  -3  -3 -11    2.86    0.89
   3   3  11    2.20    0.99
  -4  -3 -11   23.38    1.99
   4   3  11   25.22    2.28
   4   3  11   26.88    2.38
  -5  -3 -11   14.63    1.71
   5   3  11   13.42    1.79
   5   3  11   19.85    2.22
   5  -4 -11    1.58    0.92
   5  -4 -11    1.82    1.07
  -5   4  11    0.12    0.89
   4  -4 -11    0.53    0.83
   4  -4 -11   -0.07    0.72
  -4   4  11    0.32    0.91
   3  -4 -11    6.30    1.11
   3  -4 -11    8.62    1.48
  -3   4  11    5.13    1.20
   2  -4 -11    1.57    0.88
  -2   4  11    0.52    0.79
   1  -4 -11    8.64    1.37
  -1   4  11    7.48    1.34
   0  -4 -11   18.01    1.82
   0   4  11   16.92    1.94
  -1  -4 -11    8.40    1.33
   1   4  11    8.76    1.48
  -2  -4 -11    7.65    1.28
   2   4  11   11.10    1.63
  -3  -4 -11   27.39    1.91
   3   4  11   24.78    2.31
  -4  -4 -11   21.62    2.01
   4   4  11   22.46    2.26
  -5  -4 -11    6.61    1.24
   5   4  11    8.59    1.69
   5   4  11    5.34    1.32
   5  -5 -11    0.86    0.96
   5  -5 -11    1.23    0.91
  -5   5  11    0.77    1.05
  -5   5  11   -0.19    0.71
   4  -5 -11    3.30    1.06
   4  -5 -11    3.25    1.14
  -4   5  11    1.70    1.10
   3  -5 -11    1.84    0.94
   3  -5 -11    2.78    0.90
  -3   5  11    1.88    1.01
   2  -5 -11    0.43    0.73
  -2   5  11   -0.24    0.71
   1  -5 -11    3.15    1.00
  -1   5  11    2.56    1.05
   0  -5 -11   28.66    2.30
   0   5  11   30.35    2.60
  -1  -5 -11   17.06    1.75
   1   5  11   17.92    2.00
  -2  -5 -11   30.14    2.01
   2   5  11   24.52    2.33
  -3  -5 -11   31.30    2.06
   3   5  11   29.59    2.56
  -4  -5 -11    2.69    0.98
   4   5  11    3.40    1.18
   4  -6 -11    0.95    0.91
   4  -6 -11    0.60    0.84
  -4   6  11    1.58    1.09
   3  -6 -11    5.41    1.28
  -3   6  11    7.84    1.45
   2  -6 -11    2.53    1.02
  -2   6  11    1.85    0.99
   1  -6 -11   19.00    1.98
  -1   6  11   17.01    1.98
   0  -6 -11   18.36    1.91
   0   6  11   16.60    2.02
  -1  -6 -11   10.54    1.50
   1   6  11    8.46    1.55
  -2  -6 -11   13.92    1.67
   2   6  11   13.29    1.84
  -3  -6 -11    7.19    1.32
   3   6  11    5.98    1.34
   3  -7 -11    9.04    1.58
  -3   7  11   10.45    1.68
   2  -7 -11    0.02    0.75
  -2   7  11   -0.27    0.85
   1  -7 -11    7.61    1.48
  -1   7  11    7.62    1.50
   0  -7 -11   19.89    2.08
   0   7  11   18.36    2.15
  -1  -7 -11    0.99    0.84
   1   7  11    0.20    0.89
  -2  -7 -11   -0.36    0.73
   2   7  11    0.12    0.83
  -1   8  11   10.40    1.76
   0  -8 -11    1.44    1.02
   0   8  11    1.01    1.00
   2   7 -12   -0.52    0.81
  -2  -7  12    0.93    0.90
   1   7 -12   -0.14    0.79
  -1  -7  12   -1.22    0.68
   0   7 -12    4.75    1.15
  -1   7 -12    3.49    1.05
  -2   7 -12    6.19    1.26
   2  -7  12    2.84    1.36
   3   6 -12    7.77    1.42
  -3  -6  12    8.45    1.49
   2   6 -12    0.39    0.86
  -2  -6  12    0.59    0.85
   1   6 -12    0.28    0.81
  -1  -6  12    1.23    0.86
   0   6 -12   35.44    2.22
   0  -6  12   36.13    2.21
  -1   6 -12   26.42    1.92
  -2   6 -12    5.99    1.18
   2  -6  12    6.38    1.52
   3  -6  12   12.57    1.94
   4   5 -12    1.49    0.97
  -4  -5  12    0.08    0.83
   3   5 -12    5.68    1.21
  -3  -5  12    5.12    1.29
   2   5 -12   11.39    1.59
  -2  -5  12   13.08    1.67
   1   5 -12    7.41    1.25
  -1  -5  12    5.48    1.20
   0   5 -12    5.72    1.11
   0  -5  12    6.86    1.25
  -1   5 -12   29.36    1.92
   1  -5  12   27.49    1.92
   3  -5  12   14.23    1.95
  -4   5 -12    0.21    0.76
   4  -5  12    0.64    1.07
   4   4 -12    5.58    1.30
  -4  -4  12    6.65    1.38
   3   4 -12    6.48    1.30
  -3  -4  12    6.25    1.32
   2   4 -12    8.66    1.37
  -2  -4  12    8.44    1.40
   1   4 -12   10.97    1.46
  -1  -4  12   12.57    1.60
   0   4 -12   34.53    2.05
   0  -4  12   43.17    2.34
  -1   4 -12    0.60    0.73
   1  -4  12    0.65    0.82
  -2   4 -12    0.43    0.64
  -3   4 -12    0.64    0.75
   3  -4  12   -0.14    0.88
  -4   4 -12    2.21    0.91
   4  -4  12    2.96    1.28
   5   3 -12    0.59    0.88
  -5  -3  12    0.19    0.90
   4   3 -12   12.75    1.67
  -4  -3  12    6.47    1.38
   3   3 -12   13.20    1.66
  -3  -3  12   17.51    1.93
   2   3 -12   -0.23    0.71
  -2  -3  12   -0.81    0.70
   1   3 -12    0.83    0.75
  -1  -3  12    1.86    0.88
   0   3 -12   15.52    1.48
   0   3 -12   11.21    1.39
   0  -3  12   15.05    1.71
  -1   3 -12    9.08    1.24
   1  -3  12    7.68    1.25
  -2   3 -12    6.43    1.11
   2  -3  12    7.99    1.28
  -3   3 -12    1.14    0.75
   3  -3  12    2.39    1.03
  -4   3 -12    0.93    0.74
   4  -3  12    0.32    1.00
  -5   3 -12    1.72    0.96
   5  -3  12    0.60    1.09
   5   2 -12    0.98    0.94
  -5  -2  12   -0.41    0.83
   4   2 -12    5.56    1.20
  -4  -2  12    4.22    1.18
   3   2 -12    5.14    1.15
  -3  -2  12    6.90    1.36
   2   2 -12    1.48    0.76
  -2  -2  12    1.41    0.91
   1   2 -12    6.62    1.13
   1   2 -12    7.01    1.12
  -1  -2  12    3.53    1.01
   0   2 -12    0.25    0.63
   0   2 -12   -0.01    0.58
   0  -2  12    1.08    0.80
  -1   2 -12   12.05    1.40
   1  -2  12   10.43    1.44
  -2   2 -12    1.62    0.77
   2  -2  12    0.63    0.77
  -3   2 -12    9.22    1.33
   3  -2  12   11.26    1.49
  -4   2 -12   19.19    1.84
   4  -2  12   25.17    2.40
  -5   2 -12    9.12    1.47
   5  -2  12    5.95    1.46
   5   1 -12    0.62    0.88
  -5  -1  12    0.10    0.89
   4   1 -12    3.66    1.00
  -4  -1  12    1.71    1.00
   3   1 -12    0.97    0.76
   3   1 -12   -0.33    0.66
  -3  -1  12   -0.14    0.78
   2   1 -12   -0.12    0.67
   2   1 -12    0.28    0.62
  -2  -1  12   -0.18    0.67
   1   1 -12    4.21    0.95
   1   1 -12    3.95    0.96
  -1  -1  12    2.61    0.97
   0   1 -12    0.24    0.68
   0  -1  12    0.08    0.73
  -1   1 -12    1.16    0.67
   1  -1  12   -0.11    0.65
  -2   1 -12   14.75    1.58
   2  -1  12   16.71    1.79
  -3   1 -12   33.83    2.01
   3  -1  12   33.21    2.08
  -4   1 -12   23.59    2.07
   4  -1  12   24.54    2.29
   5  -1  12   34.13    2.61
   5   0 -12    0.20    0.85
  -5   0  12    0.18    0.91
   4   0 -12    4.87    1.14
   4   0 -12    8.03    1.39
  -4   0  12    3.02    1.07
   3   0 -12    1.22    0.79
   3   0 -12    0.29    0.75
  -3   0  12    1.50    0.86
   2   0 -12   -0.11    0.60
   2   0 -12    0.43    0.69
  -2   0  12   -0.89    0.60
   1   0 -12   15.86    1.63
   1   0 -12   15.92    1.47
  -1   0  12   13.44    1.71
   0   0 -12    6.25    1.11
   0   0  12    3.22    1.04
  -1   0 -12    2.93    0.87
   1   0  12    3.57    1.05
  -2   0 -12   39.07    2.15
   2   0  12   44.20    2.41
  -3   0 -12   67.76    2.83
   3   0  12   69.19    3.02
  -4   0 -12    7.38    1.26
   4   0  12    7.86    1.34
   4   0  12    7.91    1.51
  -5   0 -12   14.39    1.77
   5   0  12   16.67    2.09
   5  -1 -12   20.45    2.04
   5  -1 -12   15.42    1.94
  -5   1  12   17.81    2.10
   4  -1 -12    0.30    0.70
   4  -1 -12    0.62    0.91
  -4   1  12    0.48    0.93
   3  -1 -12    3.96    0.97
   3  -1 -12    2.47    0.97
  -3   1  12    2.26    1.06
   2  -1 -12    5.71    1.05
   2  -1 -12    6.79    1.23
  -2   1  12    4.02    1.11
   1  -1 -12   24.96    2.07
  -1   1  12   23.78    2.19
   0  -1 -12   20.72    1.86
   0   1  12   19.43    1.98
  -1  -1 -12    0.46    0.65
   1   1  12    1.61    0.88
  -2  -1 -12   21.47    1.90
   2   1  12   24.21    2.19
  -3  -1 -12   -0.70    0.64
   3   1  12    0.03    0.74
  -4  -1 -12    0.98    0.84
   4   1  12    0.92    0.83
  -5  -1 -12    2.05    0.89
   5   1  12    0.48    1.10
   5  -2 -12    2.45    1.05
   5  -2 -12    1.43    1.06
  -5   2  12    3.26    1.19
   4  -2 -12   10.18    1.64
   4  -2 -12   12.00    1.53
  -4   2  12   11.31    1.70
   3  -2 -12    0.63    0.84
   3  -2 -12    1.03    0.75
  -3   2  12    0.53    0.85
   2  -2 -12   18.05    1.64
   2  -2 -12   17.14    1.84
  -2   2  12   17.55    1.99
   1  -2 -12   49.21    2.52
  -1   2  12   58.42    2.96
   0  -2 -12    2.59    0.88
   0   2  12    3.73    1.14
  -1  -2 -12    0.09    0.64
   1   2  12   -0.20    0.73
  -2  -2 -12    3.92    1.00
   2   2  12    5.06    1.20
  -3  -2 -12    0.17    0.71
   3   2  12   -0.38    0.75
  -4  -2 -12   26.94    2.24
   4   2  12   23.78    2.30
   4  -3 -12    0.22    0.91
   4  -3 -12   -0.24    0.75
  -4   3  12    0.06    0.93
   3  -3 -12    6.01    1.15
   3  -3 -12    5.49    1.27
  -3   3  12    1.90    1.01
   2  -3 -12   10.70    1.55
  -2   3  12    9.96    1.55
   1  -3 -12   39.04    2.32
  -1   3  12   36.93    2.44
   0  -3 -12    0.77    0.78
   0   3  12    0.72    0.83
  -1  -3 -12    2.86    0.91
   1   3  12    1.25    0.91
  -2  -3 -12    0.03    0.68
   2   3  12    0.70    0.85
  -3  -3 -12   22.20    2.06
   3   3  12   19.63    2.14
  -4  -3 -12    3.50    1.04
   4   3  12    1.95    1.07
   4  -4 -12    1.67    0.97
   4  -4 -12    2.25    1.14
  -4   4  12    2.27    1.19
   3  -4 -12    1.88    0.99
  -3   4  12    1.71    1.02
   2  -4 -12    8.23    1.49
  -2   4  12   10.23    1.64
   1  -4 -12    0.02    0.75
  -1   4  12   -0.76    0.64
   0  -4 -12    0.64    0.80
   0   4  12   -0.49    0.78
  -1  -4 -12    4.65    1.11
   1   4  12    6.82    1.46
  -2  -4 -12    1.41    0.84
   2   4  12    2.61    1.08
  -3  -4 -12    0.80    0.76
   3   4  12   -0.48    0.85
   3  -5 -12   -0.44    0.83
  -3   5  12    0.38    0.87
   2  -5 -12    3.64    1.13
  -2   5  12    4.23    1.22
   1  -5 -12    1.97    0.95
  -1   5  12    2.14    1.03
   0  -5 -12    6.14    1.28
   0   5  12    6.42    1.39
  -1  -5 -12    3.09    1.02
   1   5  12    1.88    1.07
  -2  -5 -12    4.61    1.17
   2   5  12    7.30    1.53
  -3  -5 -12    3.94    1.11
   3   5  12    6.27    1.47
   2  -6 -12    0.31    0.87
  -2   6  12    0.76    0.95
   1  -6 -12    0.43    0.82
  -1   6  12    0.08    0.88
   0  -6 -12    0.03    0.77
   0   6  12   -0.36    0.87
  -1  -6 -12   12.06    1.68
   1   6  12    7.17    1.53
   2   6  12    5.29    1.44
   1   6 -13    1.32    1.00
   0   6 -13    1.20    0.88
   0  -6  13    0.13    0.77
  -1   6 -13   -0.44    0.79
   2   5 -13    0.72    0.92
  -2  -5  13   -0.42    0.77
   1   5 -13   10.43    1.55
  -1  -5  13   10.98    1.60
   0   5 -13   -0.27    0.81
   0  -5  13    0.64    0.88
   3   4 -13    0.13    0.89
  -3  -4  13    0.69    0.90
   2   4 -13    8.70    1.45
  -2  -4  13   11.58    1.69
   1   4 -13    6.06    1.26
  -1  -4  13    6.98    1.37
   0   4 -13    7.04    1.29
   0  -4  13    9.36    1.46
   1  -4  13   22.71    2.11
  -3   4 -13    1.59    0.89
   3   3 -13    0.57    0.78
  -3  -3  13    1.36    0.99
   2   3 -13   10.81    1.52
  -2  -3  13   12.90    1.73
   1   3 -13    9.97    1.42
  -1  -3  13   14.28    1.80
   0  -3  13   18.78    1.98
  -1   3 -13   21.64    1.90
   1  -3  13   20.40    2.00
  -2   3 -13    0.28    0.70
   2  -3  13    0.22    0.81
  -3   3 -13    0.46    0.73
   3   2 -13    4.72    1.12
  -3  -2  13    7.00    1.42
   2   2 -13   12.16    1.56
  -2  -2  13   10.80    1.65
   1   2 -13    1.82    0.86
  -1  -2  13    0.47    0.83
   0   2 -13    6.35    1.17
   0  -2  13    7.55    1.36
  -1   2 -13    9.62    1.34
   1  -2  13   10.21    1.56
  -2   2 -13    0.41    0.76
   2  -2  13    1.72    0.93
  -3   2 -13   19.55    1.90
   4   1 -13   -0.21    0.82
  -4  -1  13    0.48    0.92
   3   1 -13    2.38    1.00
  -3  -1  13    1.54    0.94
   2   1 -13    1.68    0.86
   2   1 -13    0.06    0.73
  -2  -1  13    0.97    0.89
   1   1 -13    6.80    1.27
  -1  -1  13    6.38    1.31
   0   1 -13    0.43    0.76
   0  -1  13    0.77    0.87
  -1   1 -13    0.21    0.67
   1  -1  13    0.16    0.85
  -2   1 -13    2.75    0.98
   2  -1  13    1.76    0.97
  -3   1 -13    0.60    0.81
   3  -1  13    0.89    0.90
  -4   1 -13    0.94    0.87
   4   0 -13   -0.96    0.73
  -4   0  13    0.07    0.92
   3   0 -13    0.80    0.87
   3   0 -13    1.26    0.87
  -3   0  13    2.93    1.09
   2   0 -13    1.37    0.92
   2   0 -13    0.87    0.77
  -2   0  13    1.82    1.03
   1   0 -13    5.74    1.20
  -1   0  13    7.01    1.38
   0   0 -13   -0.05    0.73
   0   0  13   -0.63    0.69
  -1   0 -13    9.06    1.37
   1   0  13    9.79    1.55
  -2   0 -13    1.27    0.85
   2   0  13    0.63    0.86
  -3   0 -13    1.21    0.83
   3   0  13    3.00    1.13
   4  -1 -13    0.01    0.91
  -4   1  13   -0.64    0.87
   3  -1 -13    6.45    1.34
   3  -1 -13    6.44    1.24
  -3   1  13    5.95    1.36
   2  -1 -13    1.14    0.81
  -2   1  13    1.68    1.06
   1  -1 -13    2.89    0.99
  -1   1  13    1.38    0.94
   0  -1 -13   -0.34    0.68
   0   1  13    0.05    0.85
  -1  -1 -13   25.64    2.18
   1   1  13   25.92    2.32
  -2  -1 -13    2.55    0.91
   2   1  13    4.41    1.25
  -3  -1 -13   20.50    1.99
   3   1  13   20.16    2.16
   3  -2 -13    2.94    1.14
   3  -2 -13    4.00    1.06
  -3   2  13    3.86    1.23
   2  -2 -13    0.96    0.87
  -2   2  13    0.78    0.86
   1  -2 -13    1.56    0.87
  -1   2  13   -0.41    0.71
   0  -2 -13   18.90    1.94
   0   2  13   18.11    2.02
  -1  -2 -13   17.92    1.91
   1   2  13   17.39    2.06
  -2  -2 -13   32.70    2.16
   2   2  13   31.67    2.32
  -3  -2 -13   16.65    1.88
   3   2  13   14.63    1.93
   3  -3 -13    8.72    1.53
  -3   3  13    9.58    1.76
   2  -3 -13    3.66    1.17
  -2   3  13    1.44    1.04
   1  -3 -13    0.91    0.89
  -1   3  13    1.65    1.06
   0  -3 -13   12.68    1.72
   0   3  13    9.87    1.65
  -1  -3 -13    2.85    1.09
   1   3  13    5.28    1.40
  -2  -3 -13    1.99    0.96
   2   3  13    0.46    0.89
   2  -4 -13    4.05    1.23
  -2   4  13    3.40    1.20
   1  -4 -13    4.36    1.20
  -1   4  13    3.52    1.25
   0  -4 -13   22.42    2.23
   0   4  13   21.91    2.35
  -1  -4 -13    0.45    0.81
   1   4  13    1.02    1.06
   2   4  13    5.75    1.40
   0  -3  14    5.57    1.36
  -1  -2  14   12.51    1.77
   0  -2  14   21.98    2.26
  -1   2 -14    2.01    0.94
   1  -2  14    2.18    1.11
  -2  -1  14    0.60    0.89
   1   1 -14   18.33    1.95
  -1  -1  14   16.60    2.01
   0   1 -14   11.44    1.60
   0  -1  14   14.72    1.89
  -1   1 -14    0.85    0.83
   1  -1  14    1.33    1.02
  -2   0  14    8.57    1.60
   1   0 -14   10.15    1.58
  -1   0  14    8.92    1.64
   0   0 -14    2.33    1.02
   0   0  14   -0.11    0.94
  -1   0 -14    0.65    0.86
   1   0  14    0.50    0.95
   1  -1 -14    0.92    0.92
  -1   1  14    0.43    0.90
   0  -1 -14    5.07    1.29
   0   1  14    5.76    1.41
  -1  -1 -14   -0.04    0.76
   1   1  14   -0.07    0.88
   0   0   0    0.00    0.00
;
_shelx_hkl_checksum              19524

