 
data_ActivatedForm
 
_audit_creation_method            'SHELXL-2016/6'
_shelx_SHELXL_version_number      '2016/6'
_chemical_name_systematic         ?
_chemical_name_common             ?
_chemical_melting_point           ?
_chemical_formula_moiety          ?
_chemical_formula_sum
 'C22 H18 Cd N4 O4' 
_chemical_formula_weight          514.80

loop_
 _atom_type_symbol
 _atom_type_description
 _atom_type_scat_dispersion_real
 _atom_type_scat_dispersion_imag
 _atom_type_scat_source
 'C'  'C'   0.0033   0.0016
 'International Tables Vol C Tables 4.2.6.8 and 6.1.1.4'
 'H'  'H'   0.0000   0.0000
 'International Tables Vol C Tables 4.2.6.8 and 6.1.1.4'
 'N'  'N'   0.0061   0.0033
 'International Tables Vol C Tables 4.2.6.8 and 6.1.1.4'
 'O'  'O'   0.0106   0.0060
 'International Tables Vol C Tables 4.2.6.8 and 6.1.1.4'
 'Cd'  'Cd'  -0.8075   1.2024
 'International Tables Vol C Tables 4.2.6.8 and 6.1.1.4'
 
_space_group_crystal_system       orthorhombic
_space_group_IT_number            18
_space_group_name_H-M_alt         'P 21 21 2'
_space_group_name_Hall            'P 2 2ab'
 
_shelx_space_group_comment
;
The symmetry employed for this shelxl refinement is uniquely defined
by the following loop, which should always be used as a source of
symmetry information in preference to the above space-group names.
They are only intended as comments.
;
 
loop_
 _space_group_symop_operation_xyz
 'x, y, z'
 '-x, -y, z'
 'x+1/2, -y+1/2, -z'
 '-x+1/2, y+1/2, -z'
 
_cell_length_a                    16.850(4)
_cell_length_b                    16.855(4)
_cell_length_c                    7.7979(18)
_cell_angle_alpha                 90
_cell_angle_beta                  90
_cell_angle_gamma                 90
_cell_volume                      2214.6(9)
_cell_formula_units_Z             4
_cell_measurement_temperature     298(2)
_cell_measurement_reflns_used      9895
_cell_measurement_theta_min        2.42
_cell_measurement_theta_max       24.93
 
_exptl_crystal_description        block
_exptl_crystal_colour             colorless
_exptl_crystal_density_meas       ?
_exptl_crystal_density_method     ?
_exptl_crystal_density_diffrn     1.544          
_exptl_crystal_F_000              1032
_exptl_transmission_factor_min    ?
_exptl_transmission_factor_max    ?
_exptl_crystal_size_max           0.177
_exptl_crystal_size_mid           0.089
_exptl_crystal_size_min           0.078
_exptl_absorpt_coefficient_mu     1.021
_shelx_estimated_absorpt_T_min    0.840
_shelx_estimated_absorpt_T_max    0.925
_exptl_absorpt_correction_type    ?
_exptl_absorpt_correction_T_min   ?
_exptl_absorpt_correction_T_max   ?
_exptl_absorpt_process_details    ?
_exptl_absorpt_special_details    ?
_diffrn_ambient_temperature       298(2)
_diffrn_radiation_wavelength      0.71073
_diffrn_radiation_type            MoK\a
_diffrn_source                    ?
_diffrn_measurement_device_type  'Bruker APEX-II CCD'
_diffrn_measurement_method       '\f and \w scans'
_diffrn_detector_area_resol_mean  ?
_diffrn_reflns_number             32288
_diffrn_reflns_av_unetI/netI      0.0757
_diffrn_reflns_av_R_equivalents   0.1259
_diffrn_reflns_limit_h_min        -20
_diffrn_reflns_limit_h_max        20
_diffrn_reflns_limit_k_min        -19
_diffrn_reflns_limit_k_max        20
_diffrn_reflns_limit_l_min        -9
_diffrn_reflns_limit_l_max        9
_diffrn_reflns_theta_min          1.208
_diffrn_reflns_theta_max          25.014
_diffrn_reflns_theta_full         25.000
_diffrn_measured_fraction_theta_max   0.999
_diffrn_measured_fraction_theta_full  0.999
_diffrn_reflns_Laue_measured_fraction_max    0.999
_diffrn_reflns_Laue_measured_fraction_full   0.999
_diffrn_reflns_point_group_measured_fraction_max   0.999
_diffrn_reflns_point_group_measured_fraction_full  0.999
_reflns_number_total              3895
_reflns_number_gt                 3225
_reflns_threshold_expression      'I > 2\s(I)'
_reflns_Friedel_coverage          0.739
_reflns_Friedel_fraction_max      0.999
_reflns_Friedel_fraction_full     0.999
 
_reflns_special_details
;
 Reflections were merged by SHELXL according to the crystal
 class for the calculation of statistics and refinement.
 
 _reflns_Friedel_fraction is defined as the number of unique
 Friedel pairs measured divided by the number that would be
 possible theoretically, ignoring centric projections and
 systematic absences.
;
 
_computing_data_collection       'Bruker APEX2'
_computing_cell_refinement       'Bruker SAINT'
_computing_data_reduction        'Bruker SAINT'
_computing_structure_solution    'SHELXL-2016/6 (Sheldrick, 2016)'
_computing_structure_refinement  'SHELXL-2016/6 (Sheldrick, 2016)'
_computing_molecular_graphics    'Bruker SHELXTL'
_computing_publication_material  'Bruker SHELXTL'
_refine_special_details
;
 Refined as a 2-component twin.
;
_refine_ls_structure_factor_coef  Fsqd
_refine_ls_matrix_type            full
_refine_ls_weighting_scheme       calc
_refine_ls_weighting_details
'w=1/[\s^2^(Fo^2^)+(0.0409P)^2^+3.6166P] where P=(Fo^2^+2Fc^2^)/3'
_atom_sites_solution_primary      ?
_atom_sites_solution_secondary    ?
_atom_sites_solution_hydrogens    geom
_refine_ls_hydrogen_treatment     constr
_refine_ls_extinction_method      none
_refine_ls_extinction_coef        .
_refine_ls_abs_structure_details
;
 Flack x determined using 995 quotients [(I+)-(I-)]/[(I+)+(I-)]
 (Parsons, Flack and Wagner, Acta Cryst. B69 (2013) 249-259).
;
_refine_ls_abs_structure_Flack    -0.029(16)
_chemical_absolute_configuration  ?
_refine_ls_number_reflns          3895
_refine_ls_number_parameters      229
_refine_ls_number_restraints      83
_refine_ls_R_factor_all           0.0919
_refine_ls_R_factor_gt            0.0715
_refine_ls_wR_factor_ref          0.1231
_refine_ls_wR_factor_gt           0.1171
_refine_ls_goodness_of_fit_ref    1.161
_refine_ls_restrained_S_all       1.163
_refine_ls_shift/su_max           0.032
_refine_ls_shift/su_mean          0.001
 
loop_
 _atom_site_label
 _atom_site_type_symbol
 _atom_site_fract_x
 _atom_site_fract_y
 _atom_site_fract_z
 _atom_site_U_iso_or_equiv
 _atom_site_adp_type
 _atom_site_occupancy
 _atom_site_site_symmetry_order  
 _atom_site_calc_flag
 _atom_site_refinement_flags_posn
 _atom_site_refinement_flags_adp
 _atom_site_refinement_flags_occupancy
 _atom_site_disorder_assembly
 _atom_site_disorder_group
Cd1 Cd 0.78251(12) 0.21655(12) 0.52218(9) 0.0448(3) Uani 1 1 d D . . . .
O1 O 0.8152(10) 0.1816(12) 0.7955(12) 0.068(4) Uani 1 1 d . . . . .
O2 O 0.8925(9) 0.1346(11) 0.5971(14) 0.078(6) Uani 1 1 d . . . . .
C1 C 1.2080(7) 0.0975(5) 1.4525(15) 0.083(7) Uani 1 1 d G . . . .
H1 H 1.242627 0.072794 1.528492 0.100 Uiso 1 1 calc R U . . .
C2 C 1.1447(7) 0.0604(5) 1.3630(16) 0.073(6) Uani 1 1 d G . . . .
H2 H 1.130517 0.007203 1.370085 0.088 Uiso 1 1 calc R U . . .
N2 N 1.1067(6) 0.1189(4) 1.2607(12) 0.047(3) Uani 1 1 d DG U . . .
C3 C 1.1466(6) 0.1921(5) 1.2870(13) 0.042(4) Uani 1 1 d G U . . .
N1 N 1.2092(6) 0.1789(5) 1.4055(12) 0.048(4) Uani 1 1 d G U . . .
C4 C 1.136559 0.264330 1.204689 0.059(6) Uani 1 1 d . . . . .
H4A H 1.168064 0.265325 1.102139 0.088 Uiso 1 1 calc R U . . .
H4B H 1.152999 0.306493 1.279448 0.088 Uiso 1 1 calc R U . . .
H4C H 1.081638 0.271172 1.175478 0.088 Uiso 1 1 calc R U . . .
C5 C 1.0481(6) 0.1046(7) 1.1417(11) 0.049(5) Uani 1 1 d DG U . . .
C6 C 0.9714(6) 0.1263(7) 1.1871(9) 0.045(5) Uani 1 1 d G . . . .
H6 H 0.958491 0.134281 1.301757 0.054 Uiso 1 1 calc R U . . .
C7 C 0.9139(5) 0.1361(6) 1.0610(12) 0.041(5) Uani 1 1 d G . . . .
H7 H 0.862523 0.150673 1.091388 0.049 Uiso 1 1 calc R U . . .
C8 C 0.9331(6) 0.1242(7) 0.8896(10) 0.048(4) Uani 1 1 d DG U . . .
C9 C 1.0099(7) 0.1025(8) 0.8443(9) 0.048(4) Uani 1 1 d G . . . .
H9 H 1.022767 0.094488 0.729591 0.057 Uiso 1 1 calc R U . . .
C10 C 1.0674(5) 0.0926(6) 0.9703(13) 0.054(5) Uani 1 1 d G U . . .
H10 H 1.118736 0.078095 0.939959 0.064 Uiso 1 1 calc R U . . .
C11 C 0.8788(9) 0.1466(9) 0.7517(18) 0.038(5) Uani 1 1 d D U . . .
C12 C 0.9390(7) 0.3256(7) 0.4287(12) 0.050(5) Uani 1 1 d G . . . .
H12 H 0.967974 0.310552 0.524873 0.060 Uiso 1 1 calc R U . . .
C13 C 0.9613(6) 0.3845(7) 0.3077(16) 0.056(5) Uani 1 1 d G U . . .
H13 H 1.007425 0.414808 0.310789 0.067 Uiso 1 1 calc R U . . .
N4 N 0.9009(7) 0.3890(6) 0.1812(12) 0.054(5) Uani 1 1 d DG . . . .
C14 C 0.8412(6) 0.3329(7) 0.2239(13) 0.038(4) Uani 1 1 d G U . . .
N3 N 0.8648(7) 0.2937(6) 0.3769(12) 0.035(4) Uani 1 1 d G U . . .
C15 C 0.775320 0.317410 0.113420 0.062(5) Uani 1 1 d . . . . .
H15A H 0.746351 0.272376 0.155413 0.093 Uiso 1 1 calc R U . . .
H15B H 0.794255 0.306551 -0.000295 0.093 Uiso 1 1 calc R U . . .
H15C H 0.741096 0.362930 0.110932 0.093 Uiso 1 1 calc R U . . .
C16 C 0.8908(8) 0.4479(7) 0.0510(13) 0.043(4) Uani 1 1 d DG . . . .
C17 C 0.9139(8) 0.4316(6) -0.1165(16) 0.078(8) Uani 1 1 d G . . . .
H17 H 0.944594 0.387017 -0.139891 0.094 Uiso 1 1 calc R U . . .
C18 C 0.8911(9) 0.4819(8) -0.2489(11) 0.073(7) Uani 1 1 d G . . . .
H18 H 0.906592 0.470957 -0.360922 0.088 Uiso 1 1 calc R U . . .
C19 C 0.8452(7) 0.5485(7) -0.2139(11) 0.043(4) Uani 1 1 d DG U . . .
C20 C 0.8221(7) 0.5648(6) -0.0464(13) 0.047(4) Uani 1 1 d G U . . .
H20 H 0.791416 0.609304 -0.023007 0.056 Uiso 1 1 calc R U . . .
C21 C 0.8449(8) 0.5145(7) 0.0860(10) 0.050(5) Uani 1 1 d G . . . .
H21 H 0.829417 0.525364 0.198026 0.060 Uiso 1 1 calc R U . . .
O4 O 0.8375(11) 0.5908(9) -0.5024(19) 0.096(6) Uani 1 1 d . . . . .
O3 O 0.7685(10) 0.6505(9) -0.3116(15) 0.063(4) Uani 1 1 d . . . . .
C22 C 0.8173(10) 0.6000(11) -0.3537(19) 0.033(4) Uani 1 1 d D U . . .
 
loop_
 _atom_site_aniso_label
 _atom_site_aniso_U_11
 _atom_site_aniso_U_22
 _atom_site_aniso_U_33
 _atom_site_aniso_U_23
 _atom_site_aniso_U_13
 _atom_site_aniso_U_12
Cd1 0.048(2) 0.053(2) 0.0337(4) -0.0017(10) 0.0007(9) 0.0032(6)
O1 0.048(12) 0.109(17) 0.047(5) 0.010(13) 0.003(11) 0.030(6)
O2 0.065(11) 0.133(17) 0.035(6) 0.005(8) -0.002(6) 0.040(11)
C1 0.093(18) 0.075(15) 0.081(14) -0.012(12) -0.053(15) 0.013(13)
C2 0.075(16) 0.045(13) 0.100(17) -0.013(12) -0.024(14) 0.000(13)
N2 0.049(7) 0.039(7) 0.053(6) -0.007(6) 0.002(6) 0.013(6)
C3 0.041(7) 0.034(8) 0.050(7) -0.007(6) 0.010(6) -0.005(6)
N1 0.055(8) 0.041(7) 0.047(5) -0.008(5) -0.010(6) -0.008(7)
C4 0.067(14) 0.055(15) 0.055(11) -0.003(10) -0.005(10) 0.002(11)
C5 0.044(8) 0.052(8) 0.052(8) 0.003(7) -0.010(7) 0.010(7)
C6 0.051(13) 0.042(12) 0.041(10) -0.006(8) 0.005(9) -0.005(10)
C7 0.023(9) 0.061(12) 0.040(10) -0.003(8) -0.004(7) -0.007(8)
C8 0.054(7) 0.046(7) 0.043(6) 0.001(5) -0.003(6) 0.002(6)
C9 0.054(7) 0.046(7) 0.043(6) 0.001(5) -0.003(6) 0.002(6)
C10 0.041(8) 0.059(9) 0.060(7) -0.009(7) -0.003(7) -0.005(7)
C11 0.037(7) 0.029(7) 0.049(6) -0.002(5) -0.002(5) -0.007(6)
C12 0.039(13) 0.056(12) 0.054(13) -0.010(11) -0.001(10) 0.004(9)
C13 0.053(8) 0.051(8) 0.065(8) -0.002(7) -0.003(7) 0.005(7)
N4 0.069(13) 0.042(11) 0.051(10) -0.007(8) -0.004(8) 0.017(9)
C14 0.040(8) 0.037(8) 0.037(7) 0.007(6) 0.010(6) 0.000(7)
N3 0.036(7) 0.034(7) 0.035(6) 0.003(6) 0.004(6) -0.007(6)
C15 0.023(10) 0.074(14) 0.089(12) 0.002(10) 0.003(10) -0.016(11)
C16 0.047(11) 0.034(10) 0.046(11) 0.022(8) -0.007(9) -0.004(8)
C17 0.089(19) 0.09(2) 0.054(14) 0.010(13) 0.026(13) 0.044(15)
C18 0.087(18) 0.077(18) 0.057(13) 0.024(12) 0.027(12) 0.010(14)
C19 0.045(8) 0.046(8) 0.038(7) 0.000(6) 0.002(6) -0.003(7)
C20 0.049(7) 0.040(8) 0.052(8) 0.000(6) -0.005(6) 0.008(6)
C21 0.059(13) 0.058(13) 0.035(10) -0.005(9) 0.010(8) 0.002(11)
O4 0.144(15) 0.096(12) 0.048(9) 0.042(9) 0.013(10) 0.025(10)
O3 0.087(12) 0.066(10) 0.037(7) 0.011(6) -0.001(8) 0.032(8)
C22 0.029(7) 0.031(8) 0.038(7) 0.009(6) -0.015(6) 0.011(6)
 
_geom_special_details
;
 All esds (except the esd in the dihedral angle between two l.s. planes)
 are estimated using the full covariance matrix.  The cell esds are taken
 into account individually in the estimation of esds in distances, angles
 and torsion angles; correlations between esds in cell parameters are only
 used when they are defined by crystal symmetry.  An approximate (isotropic)
 treatment of cell esds is used for estimating esds involving l.s. planes.
;
 
loop_
 _geom_bond_atom_site_label_1
 _geom_bond_atom_site_label_2
 _geom_bond_distance
 _geom_bond_site_symmetry_2
 _geom_bond_publ_flag
Cd1 O3 2.162(12) 4_645 ?
Cd1 N3 2.213(8) . ?
Cd1 N1 2.225(14) 3_457 ?
Cd1 O1 2.279(9) . ?
Cd1 O2 2.384(12) . ?
Cd1 C11 2.688(14) . ?
O1 C11 1.270(17) . ?
O2 C11 1.244(17) . ?
C1 N1 1.4200 . ?
C1 C2 1.4200 . ?
C1 H1 0.9300 . ?
C2 N2 1.4200 . ?
C2 H2 0.9300 . ?
N2 C5 1.376(10) . ?
N2 C3 1.4200 . ?
C3 C4 1.386(8) . ?
C3 N1 1.4200 . ?
C4 H4A 0.9600 . ?
C4 H4B 0.9600 . ?
C4 H4C 0.9600 . ?
C5 C6 1.3900 . ?
C5 C10 1.3900 . ?
C6 C7 1.3900 . ?
C6 H6 0.9300 . ?
C7 C8 1.3900 . ?
C7 H7 0.9300 . ?
C8 C9 1.3900 . ?
C8 C11 1.462(14) . ?
C9 C10 1.3900 . ?
C9 H9 0.9300 . ?
C10 H10 0.9300 . ?
C12 N3 1.4200 . ?
C12 C13 1.4200 . ?
C12 H12 0.9300 . ?
C13 N4 1.4200 . ?
C13 H13 0.9300 . ?
N4 C14 1.4200 . ?
N4 C16 1.430(9) . ?
C14 N3 1.4200 . ?
C14 C15 1.430(8) . ?
C15 H15A 0.9600 . ?
C15 H15B 0.9600 . ?
C15 H15C 0.9600 . ?
C16 C17 1.3900 . ?
C16 C21 1.3900 . ?
C17 C18 1.3900 . ?
C17 H17 0.9300 . ?
C18 C19 1.3900 . ?
C18 H18 0.9300 . ?
C19 C20 1.3900 . ?
C19 C22 1.471(14) . ?
C20 C21 1.3900 . ?
C20 H20 0.9300 . ?
C21 H21 0.9300 . ?
O4 C22 1.22(2) . ?
O3 C22 1.23(2) . ?
 
loop_
 _geom_angle_atom_site_label_1
 _geom_angle_atom_site_label_2
 _geom_angle_atom_site_label_3
 _geom_angle
 _geom_angle_site_symmetry_1
 _geom_angle_site_symmetry_3
 _geom_angle_publ_flag
O3 Cd1 N3 99.4(5) 4_645 . ?
O3 Cd1 N1 112(2) 4_645 3_457 ?
N3 Cd1 N1 90.7(4) . 3_457 ?
O3 Cd1 O1 132.3(7) 4_645 . ?
N3 Cd1 O1 118.6(7) . . ?
N1 Cd1 O1 95.9(19) 3_457 . ?
O3 Cd1 O2 101.4(6) 4_645 . ?
N3 Cd1 O2 88.8(6) . . ?
N1 Cd1 O2 146(2) 3_457 . ?
O1 Cd1 O2 55.4(4) . . ?
O3 Cd1 C11 121.3(6) 4_645 . ?
N3 Cd1 C11 102.7(5) . . ?
N1 Cd1 C11 121(2) 3_457 . ?
O1 Cd1 C11 28.1(4) . . ?
O2 Cd1 C11 27.6(4) . . ?
C11 O1 Cd1 94.2(8) . . ?
C11 O2 Cd1 90.0(9) . . ?
N1 C1 C2 108.0 . . ?
N1 C1 H1 126.0 . . ?
C2 C1 H1 126.0 . . ?
C1 C2 N2 108.0 . . ?
C1 C2 H2 126.0 . . ?
N2 C2 H2 126.0 . . ?
C5 N2 C3 126.1(6) . . ?
C5 N2 C2 125.4(6) . . ?
C3 N2 C2 108.0 . . ?
C4 C3 N2 129.6(3) . . ?
C4 C3 N1 122.0(3) . . ?
N2 C3 N1 108.0 . . ?
C1 N1 C3 108.0 . . ?
C1 N1 Cd1 135.1(3) . 3_557 ?
C3 N1 Cd1 116.9(3) . 3_557 ?
C3 C4 H4A 109.5 . . ?
C3 C4 H4B 109.5 . . ?
H4A C4 H4B 109.5 . . ?
C3 C4 H4C 109.5 . . ?
H4A C4 H4C 109.5 . . ?
H4B C4 H4C 109.5 . . ?
N2 C5 C6 116.7(8) . . ?
N2 C5 C10 120.4(8) . . ?
C6 C5 C10 120.0 . . ?
C5 C6 C7 120.0 . . ?
C5 C6 H6 120.0 . . ?
C7 C6 H6 120.0 . . ?
C8 C7 C6 120.0 . . ?
C8 C7 H7 120.0 . . ?
C6 C7 H7 120.0 . . ?
C9 C8 C7 120.0 . . ?
C9 C8 C11 117.6(9) . . ?
C7 C8 C11 121.6(10) . . ?
C8 C9 C10 120.0 . . ?
C8 C9 H9 120.0 . . ?
C10 C9 H9 120.0 . . ?
C9 C10 C5 120.0 . . ?
C9 C10 H10 120.0 . . ?
C5 C10 H10 120.0 . . ?
O2 C11 O1 119.5(13) . . ?
O2 C11 C8 123.7(14) . . ?
O1 C11 C8 116.8(13) . . ?
O2 C11 Cd1 62.5(8) . . ?
O1 C11 Cd1 57.7(7) . . ?
C8 C11 Cd1 168.8(11) . . ?
N3 C12 C13 108.0 . . ?
N3 C12 H12 126.0 . . ?
C13 C12 H12 126.0 . . ?
N4 C13 C12 108.0 . . ?
N4 C13 H13 126.0 . . ?
C12 C13 H13 126.0 . . ?
C13 N4 C14 108.0 . . ?
C13 N4 C16 128.0(10) . . ?
C14 N4 C16 123.0(10) . . ?
N4 C14 N3 108.0 . . ?
N4 C14 C15 122.0(8) . . ?
N3 C14 C15 129.7(8) . . ?
C14 N3 C12 108.0 . . ?
C14 N3 Cd1 121.9(6) . . ?
C12 N3 Cd1 129.0(6) . . ?
C14 C15 H15A 109.5 . . ?
C14 C15 H15B 109.5 . . ?
H15A C15 H15B 109.5 . . ?
C14 C15 H15C 109.5 . . ?
H15A C15 H15C 109.5 . . ?
H15B C15 H15C 109.5 . . ?
C17 C16 C21 120.0 . . ?
C17 C16 N4 119.8(10) . . ?
C21 C16 N4 119.2(10) . . ?
C18 C17 C16 120.0 . . ?
C18 C17 H17 120.0 . . ?
C16 C17 H17 120.0 . . ?
C17 C18 C19 120.0 . . ?
C17 C18 H18 120.0 . . ?
C19 C18 H18 120.0 . . ?
C20 C19 C18 120.0 . . ?
C20 C19 C22 119.3(11) . . ?
C18 C19 C22 120.6(11) . . ?
C21 C20 C19 120.0 . . ?
C21 C20 H20 120.0 . . ?
C19 C20 H20 120.0 . . ?
C20 C21 C16 120.0 . . ?
C20 C21 H21 120.0 . . ?
C16 C21 H21 120.0 . . ?
C22 O3 Cd1 114.8(10) . 4_655 ?
O4 C22 O3 122.0(14) . . ?
O4 C22 C19 122.7(16) . . ?
O3 C22 C19 115.2(14) . . ?
 
_refine_diff_density_max    1.163
_refine_diff_density_min   -0.694
_refine_diff_density_rms    0.109

_shelx_res_file
;
TITL ActivatedForm in P2(1)2(1)2
    C:ActivatedForm..res
    created by SHELXL-2016/6 at 10:42:00 on 19-Apr-2017
CELL 0.71073 16.8503 16.8546 7.7979 90.000 90.000 90.000
ZERR 4.0000 0.0039 0.0039 0.0018 0.000 0.000 0.000
LATT -1
SYMM -X, -Y, Z
SYMM 0.5+X, 0.5-Y, -Z
SYMM 0.5-X, 0.5+Y, -Z
SFAC C H N O CD
UNIT 88 72 16 16 4
TWIN    0.00 -1.00  0.00 -1.00  0.00  0.00  0.00  0.00 -1.00   2
BOND $H
ISOR 0.007 C3 C5 C8 C10 N3 C20 C19 N1 C13 C22 C14 N2
ISOR 0.005 C11
EADP C8 C9
EQIV $1 X-1/2,1/2-Y,2-Z
DFIX 1.42 0.02 C19 C22
DFIX 1.45 0.02 C8 C11
DFIX 1.45 0.02 N2 C5
DFIX 1.47 0.01 N4 C16
DFIX 2.22 0.01 Cd1 N1_$1
OMIT 3   3   7
OMIT 0 0 2
OMIT 0 11 3
OMIT -1 1 9
OMIT 3 0 9
OMIT 0 9 3
OMIT 0 7 3
OMIT 14 2 0
OMIT 3 1 9
OMIT 1 1 9
OMIT 3 0 2
OMIT 14 4 0
ACTA 50
FMAP 2 1 53
PLAN 10 0 0
MERG 2
SIZE 0.078 0.089 0.177
TEMP 25
L.S. 20
WGHT    0.040900    3.616600
BASF   0.50409
FVAR       0.13563
CD1   5    0.782513    0.216552    0.522180    11.00000    0.04780    0.05303 =
         0.03366   -0.00168    0.00072    0.00322
O1    4    0.815225    0.181559    0.795459    11.00000    0.04818    0.10893 =
         0.04664    0.01001    0.00305    0.02951
O2    4    0.892494    0.134619    0.597104    11.00000    0.06530    0.13309 =
         0.03535    0.00515   -0.00150    0.03959
AFIX  56
C1    1    1.208013    0.097493    1.452472    11.00000    0.09337    0.07538 =
         0.08116   -0.01202   -0.05262    0.01323
AFIX  43
H1    2    1.242627    0.072794    1.528492    11.00000   -1.20000
AFIX  55
C2    1    1.144671    0.060434    1.362972    11.00000    0.07548    0.04460 =
         0.09955   -0.01304   -0.02441    0.00030
AFIX  43
H2    2    1.130517    0.007203    1.370085    11.00000   -1.20000
AFIX  55
N2    3    1.106734    0.118923    1.260705    11.00000    0.04887    0.03917 =
         0.05312   -0.00718    0.00171    0.01277
C3    1    1.146630    0.192130    1.287000    11.00000    0.04084    0.03440 =
         0.05004   -0.00700    0.00986   -0.00466
N1    3    1.209223    0.178885    1.405518    11.00000    0.05452    0.04139 =
         0.04673   -0.00849   -0.00961   -0.00814
AFIX   0
C4    1   11.136559   10.264330   11.204689    11.00000    0.06659    0.05538 =
         0.05494   -0.00272   -0.00502    0.00190
AFIX 137
H4A   2    1.168064    0.265325    1.102139    11.00000   -1.50000
H4B   2    1.152999    0.306493    1.279448    11.00000   -1.50000
H4C   2    1.081638    0.271172    1.175478    11.00000   -1.50000
AFIX  66
C5    1    1.048128    0.104563    1.141717    11.00000    0.04423    0.05174 =
         0.05228    0.00273   -0.00957    0.00955
C6    1    0.971375    0.126305    1.187077    11.00000    0.05133    0.04239 =
         0.04065   -0.00618    0.00540   -0.00505
AFIX  43
H6    2    0.958491    0.134281    1.301757    11.00000   -1.20000
AFIX  65
C7    1    0.913876    0.136126    1.061037    11.00000    0.02293    0.06104 =
         0.03966   -0.00306   -0.00396   -0.00699
AFIX  43
H7    2    0.862523    0.150673    1.091388    11.00000   -1.20000
AFIX  65
C8    1    0.933132    0.124205    0.889634    11.00000    0.05383    0.04569 =
         0.04307    0.00075   -0.00294    0.00196
C9    1    1.009885    0.102464    0.844271    11.00000    0.05383    0.04569 =
         0.04307    0.00075   -0.00294    0.00196
AFIX  43
H9    2    1.022767    0.094488    0.729591    11.00000   -1.20000
AFIX  65
C10   1    1.067383    0.092642    0.970310    11.00000    0.04130    0.05934 =
         0.06028   -0.00898   -0.00337   -0.00465
AFIX  43
H10   2    1.118736    0.078095    0.939959    11.00000   -1.20000
AFIX   0
C11   1    0.878844    0.146630    0.751677    11.00000    0.03699    0.02949 =
         0.04866   -0.00186   -0.00153   -0.00654
AFIX  56
C12   1    0.939042    0.325588    0.428651    11.00000    0.03923    0.05627 =
         0.05439   -0.00988   -0.00111    0.00406
AFIX  43
H12   2    0.967974    0.310552    0.524873    11.00000   -1.20000
AFIX  55
C13   1    0.961332    0.384493    0.307694    11.00000    0.05277    0.05059 =
         0.06464   -0.00188   -0.00330    0.00515
AFIX  43
H13   2    1.007425    0.414808    0.310789    11.00000   -1.20000
AFIX  55
N4    3    0.900885    0.388984    0.181181    11.00000    0.06896    0.04194 =
         0.05133   -0.00663   -0.00446    0.01663
C14   1    0.841237    0.332855    0.223949    11.00000    0.03960    0.03681 =
         0.03728    0.00670    0.01003   -0.00008
N3    3    0.864819    0.293674    0.376894    11.00000    0.03628    0.03414 =
         0.03500    0.00330    0.00370   -0.00653
AFIX   0
C15   1   10.775320   10.317410   10.113420    11.00000    0.02347    0.07385 =
         0.08916    0.00184    0.00319   -0.01616
AFIX 137
H15A  2    0.746351    0.272376    0.155413    11.00000   -1.50000
H15B  2    0.794255    0.306551   -0.000295    11.00000   -1.50000
H15C  2    0.741096    0.362930    0.110932    11.00000   -1.50000
AFIX  66
C16   1    0.890773    0.447868    0.050980    11.00000    0.04748    0.03430 =
         0.04583    0.02247   -0.00701   -0.00399
C17   1    0.913893    0.431570   -0.116463    11.00000    0.08938    0.09097 =
         0.05356    0.01034    0.02576    0.04400
AFIX  43
H17   2    0.944594    0.387017   -0.139891    11.00000   -1.20000
AFIX  65
C18   1    0.891124    0.481862   -0.248891    11.00000    0.08658    0.07657 =
         0.05702    0.02442    0.02706    0.00998
AFIX  43
H18   2    0.906592    0.470957   -0.360922    11.00000   -1.20000
AFIX  65
C19   1    0.845237    0.548453   -0.213876    11.00000    0.04548    0.04567 =
         0.03850    0.00016    0.00163   -0.00281
C20   1    0.822117    0.564751   -0.046434    11.00000    0.04927    0.03954 =
         0.05158   -0.00017   -0.00478    0.00766
AFIX  43
H20   2    0.791416    0.609304   -0.023007    11.00000   -1.20000
AFIX  65
C21   1    0.844885    0.514460    0.085996    11.00000    0.05868    0.05759 =
         0.03477   -0.00525    0.00976    0.00185
AFIX  43
H21   2    0.829417    0.525364    0.198026    11.00000   -1.20000
AFIX   0
O4    4    0.837489    0.590807   -0.502397    11.00000    0.14434    0.09647 =
         0.04754    0.04204    0.01330    0.02472
O3    4    0.768501    0.650499   -0.311561    11.00000    0.08672    0.06574 =
         0.03698    0.01110   -0.00089    0.03178
C22   1    0.817336    0.600023   -0.353679    11.00000    0.02859    0.03149 =
         0.03754    0.00867   -0.01501    0.01128
HKLF 4




REM  298K in P2(1)2(1)2
REM R1 =  0.0715 for    3225 Fo > 4sig(Fo)  and  0.0919 for all    3895 data
REM    229 parameters refined using     83 restraints

END

WGHT      0.0411      3.5967

REM Highest difference peak  1.163,  deepest hole -0.694,  1-sigma level  0.109
Q1    1   0.7396  0.2581  0.5380  11.00000  0.05    1.16
Q2    1   0.7372  0.1781  0.5502  11.00000  0.05    1.04
Q3    1   0.8293  0.1729  0.5464  11.00000  0.05    0.99
Q4    1   0.8379  0.2453  0.5374  11.00000  0.05    0.86
Q5    1   0.8260  0.2600  0.5434  11.00000  0.05    0.85
Q6    1   1.1168  0.2853  1.4884  11.00000  0.05    0.55
Q7    1   0.9014  0.2424  0.5292  11.00000  0.05    0.52
Q8    1   1.2013  0.1964  1.5217  11.00000  0.05    0.49
Q9    1   0.9008  0.1944  0.5220  11.00000  0.05    0.44
Q10   1   0.7795  0.1828  0.6768  11.00000  0.05    0.44
;
_shelx_res_checksum   10333

_shelx_hkl_file
;
   0   0   1  409.15    6.36
   0   0   1  381.52    6.69
   0   0   1  388.97    6.15
   0   0   1  374.08    6.26
   0   0   1  409.69    6.24
   0   0  -1  408.38    6.24
   0   0  -1  371.85    6.24
   0   0  -1  391.18    6.14
   0   0  -1  396.54    7.23
   0   0  -1  400.91    6.34
   0   0  -2   97.83    2.64
   0   0   2  102.24    3.28
   0   0  -2  105.45    3.47
   0   0   2  108.70    2.93
   0   0  -2   96.75    4.56
   0   0   2  101.74    3.80
   0   0  -2  101.17    3.04
   0   0   2   99.30    3.21
   0   0  -2   99.06    3.35
   0   0   3  444.94    8.57
   0   0  -3  436.08    8.53
   0   0   3  464.70    8.21
   0   0  -3  453.09   10.92
   0   0  -3  451.27    8.27
   0   0   3  453.74    9.76
   0   0   4  147.51    6.01
   0   0  -4  148.49    4.91
   0   0   4  147.23    4.48
   0   0  -4  149.59    7.04
   0   0   4  145.56    4.95
   0   0  -5   52.22    4.12
   0   0   5   52.07    4.57
   0   0   5   52.14    5.21
   0   0   5   56.70    3.82
   0   0  -5   51.97    5.92
   0   0   6   30.97    4.69
   0   0  -6   27.37    6.08
   0   0   6   28.60    5.19
   0   0   6   28.90    4.04
   0   0  -6   30.68    4.00
   0   0  -7   42.35    4.84
   0   0   7   44.74    6.85
   0   0   7   54.91    6.14
   0   0  -7   47.00    7.52
   0   0   7   45.53    4.84
   0   0   8    3.20    5.96
   0   0  -8    4.62    6.06
   0   0   8    3.50    4.05
   0   0   8    9.77    5.49
   0   0   9  -11.83    5.37
   0   0  -9    2.25    6.18
   0   0   9   -6.51    6.87
   0   0   9   -2.79    4.17
   1   0   0    0.11    0.12
   1   0   0    0.01    0.08
  -1   0   0    0.09    0.06
  -1   0   0    0.03    0.14
   1   0   0    0.06    0.08
  -1   0   0    0.10    0.09
   1   0   0   -0.08    0.11
  -1   0   0    0.02    0.11
   1   0   1   43.10    1.13
  -1   0  -1   44.30    1.24
   1   0   1   45.43    1.29
   1   0   1   43.09    1.32
  -1   0   1   41.75    1.21
  -1   0  -1   41.86    1.56
   1   0  -1   43.70    1.60
  -1   0   1   43.45    1.31
   1   0  -1   41.42    1.23
  -1   0   1   43.02    1.59
  -1   0   1   44.37    1.55
  -1   0   1   43.12    1.88
   1   0  -1   44.69    1.95
  -1   0  -1   42.78    1.47
  -1   0  -1   44.15    1.16
   1   0   1   44.38    1.83
  -1   0  -1   41.79    1.83
   1   0   1   43.50    1.42
   1   0   1   42.68    1.65
   1   0   1   44.55    1.45
   1   0  -1   43.27    1.27
   1   0  -1   42.18    1.52
  -1   0  -1   44.54    1.38
  -1   0  -1   42.26    1.37
   1   0   2   21.26    2.07
   1   0   2   22.46    2.84
   1   0   2   17.00    2.26
   1   0  -2   23.77    2.22
  -1   0  -2   18.81    2.89
  -1   0   2   18.64    1.83
   1   0   2   21.63    1.96
  -1   0  -2   18.21    1.99
  -1   0   2   21.62    2.38
  -1   0   2   18.98    2.25
   1   0   2   23.18    2.57
  -1   0  -2   20.99    2.02
   1   0  -2   21.75    3.06
  -1   0  -2   20.71    2.27
  -1   0  -3   19.58    3.22
   1   0  -3   15.37    3.04
  -1   0   3   17.20    2.67
  -1   0   3   18.49    1.93
   1   0   3   16.18    1.96
  -1   0   3   15.93    2.06
   1   0  -3   14.51    1.95
  -1   0  -3   16.84    2.26
   1   0   3   16.30    2.24
   1   0   3   16.99    2.58
  -1   0  -3   15.71    2.03
   1   0   4    7.18    2.53
   1   0  -4    9.63    3.45
  -1   0  -4    9.81    3.41
  -1   0   4    8.08    2.10
   1   0   4    8.61    2.92
  -1   0   4   13.05    2.97
  -1   0   4   10.28    2.52
   1   0   4    9.56    2.23
  -1   0  -4    9.38    2.52
   1   0   5    2.93    3.29
  -1   0   5    5.39    2.98
   1   0  -5    2.51    3.53
   1   0   5    4.09    2.62
  -1   0  -5    3.60    2.75
  -1   0   5    4.63    3.37
  -1   0   5    5.91    2.45
  -1   0  -5    2.39    3.77
   1   0   5    2.28    3.07
   1   0   6    2.84    3.25
   1   0  -6    5.19    4.93
  -1   0  -6    6.76    5.02
   1   0   6    3.36    4.00
  -1   0   6    5.38    3.29
  -1   0  -6    3.09    3.37
  -1   0   6    3.18    4.10
   1   0   6    4.40    4.20
  -1   0   6    7.03    3.91
   1   0   7   -0.49    4.76
  -1   0   7    0.35    4.76
   1   0   7   -1.64    4.35
  -1   0   7   -0.19    4.26
  -1   0  -7    1.18    5.22
  -1   0   7   -1.93    3.43
   1   0   7   -2.32    3.45
   1   0  -7    2.56    5.31
  -1   0   8   -4.09    5.46
  -1   0  -8   -3.10    5.69
  -1   0   8   -4.89    4.81
  -1   0   8   -4.51    3.76
   1   0   8   -9.45    3.68
   1   0   8  -10.27    4.90
   1   0  -8    0.78    5.86
   1   0   8   -9.14    5.64
  -1   0  -9    5.17    6.57
   1   0   9  -11.12    6.98
  -1   0   9   -3.61    4.13
   1   0   9   -2.11    4.27
   1   0  -9    0.70    6.41
  -1   0   9   -8.97    5.37
   1   0   9  -11.14    5.46
  -1   0   9   -9.54    6.71
   2   0   0  551.07    8.39
   2   0   0  541.31    8.51
  -2   0   0  535.00    8.37
   2   0   0  573.34    8.34
   2   0   0  550.49    8.58
  -2   0   0  537.67    8.52
  -2   0   0  554.94    8.59
  -2   0  -1  972.25   14.55
  -2   0   1  967.88   14.95
   2   0  -1  985.11   15.66
   2   0   1  954.12   14.83
  -2   0   1  940.02   14.43
  -2   0  -1  961.15   15.30
   2   0  -1  952.86   14.96
   2   0   1  947.40   14.69
   2   0   1  952.80   14.64
   2   0  -1  994.65   14.39
  -2   0   1  965.03   14.55
   2   0  -1  945.83   14.46
  -2   0  -1  941.49   15.10
   2   0   1  978.61   14.54
  -2   0  -1  965.52   14.87
  -2   0  -1  958.48   14.67
   2   0  -1  958.95   14.52
  -2   0   1  988.01   14.36
  -2   0   1  957.66   15.61
   2   0   1  960.46   15.13
   2   0   1  936.13   15.21
   2   0   2  272.22    6.46
  -2   0   2  280.42    5.13
   2   0   2  272.13    5.75
   2   0   2  279.66    5.40
  -2   0   2  269.22    6.24
  -2   0  -2  269.35    5.98
   2   0  -2  262.53    6.21
  -2   0  -2  266.42    5.06
  -2   0  -2  269.78    5.61
   2   0  -2  266.14    7.15
  -2   0  -2  263.46    6.93
  -2   0   2  273.47    5.44
   2   0   3  205.71    5.30
  -2   0   3  205.63    4.58
  -2   0   3  199.39    5.00
   2   0   3  200.30    6.10
  -2   0   3  207.27    5.97
  -2   0  -3  201.09    5.01
   2   0   3  211.09    4.83
  -2   0  -3  204.64    6.93
   2   0  -3  202.83    7.00
  -2   0  -3  198.88    5.41
  -2   0  -4  161.16    5.48
   2   0   4  154.55    5.37
  -2   0  -4  157.86    5.05
   2   0   4  151.91    6.27
   2   0   4  161.91    4.77
  -2   0   4  160.57    5.16
  -2   0  -4  152.10    7.10
   2   0  -4  154.19    7.16
  -2   0   4  153.23    6.21
  -2   0   4  162.42    4.60
   2   0   5   54.76    5.53
  -2   0  -5   57.48    4.64
  -2   0  -5   54.47    6.13
   2   0   5   55.61    4.80
   2   0  -5   54.11    6.07
  -2   0   5   60.56    3.78
  -2   0   5   57.18    5.31
   2   0   5   53.14    3.94
  -2   0   5   51.78    4.48
   2   0   6   42.18    5.83
  -2   0   6   39.53    4.35
  -2   0  -6   40.00    5.17
   2   0  -6   37.64    6.86
  -2   0   6   38.97    5.63
   2   0   6   48.40    5.29
  -2   0  -6   38.00    6.90
  -2   0   6   44.61    5.14
   2   0   6   40.21    4.23
  -2   0   7   17.12    5.65
  -2   0   7   22.98    4.14
   2   0   7   12.91    5.56
  -2   0  -7   29.31    6.74
   2   0   7   19.88    5.23
   2   0  -7   26.47    6.71
  -2   0  -7   22.91    4.33
  -2   0   7   22.57    4.91
   2   0   7   20.83    4.18
  -2   0   8    4.30    4.06
   2   0  -8    2.34    6.11
   2   0   8   -1.59    6.12
  -2   0   8    3.57    6.13
   2   0   8   -0.06    3.97
  -2   0  -8    3.29    5.99
  -2   0  -8   10.23    3.92
  -2   0   8   -2.09    5.02
   2   0   8    0.23    5.26
   2   0   9  -13.94    6.78
  -2   0   9   -6.17    4.06
   2   0   9   -9.66    5.47
   2   0  -9    2.94    6.66
  -2   0   9   -8.11    5.46
   2   0   9   -4.57    4.30
  -2   0  -9    4.65    6.47
  -2   0   9   -4.75    6.94
  -3   0   0    0.53    0.64
   3   0   0    0.16    0.89
   3   0   0    0.23    0.70
  -3   0   0    0.13    0.74
  -3   0   0    0.26    0.57
   3   0   0   -0.20    0.70
   3   0   0    0.46    0.65
  -3   0   0    0.02    0.82
  -3   0   1   80.51    3.05
  -3   0  -1   81.05    2.71
   3   0  -1   86.41    2.17
  -3   0   1   79.60    2.38
   3   0   1   80.87    2.67
   3   0  -1   80.71    2.71
  -3   0   1   80.33    2.58
  -3   0  -1   80.37    2.29
  -3   0  -1   82.21    2.85
   3   0  -1   83.27    2.37
  -3   0  -1   83.05    2.96
  -3   0   1   79.54    2.26
  -3   0   1   81.43    2.16
   3   0  -1   81.45    2.32
   3   0  -1   82.27    3.18
  -3   0   1   81.44    2.04
   3   0   1   79.50    2.74
   3   0   1   83.93    2.44
   3   0   1   85.20    3.07
   3   0   2   10.56    2.23
   3   0  -2   10.46    1.62
   3   0   2   10.19    1.67
   3   0  -2    7.53    2.42
  -3   0  -2   11.09    1.74
  -3   0   2    8.96    1.66
   3   0   2   10.11    1.95
  -3   0  -2    7.77    2.32
  -3   0  -2   10.36    1.89
  -3   0   2    9.22    1.95
   3   0  -2    7.65    1.94
  -3   0  -2    8.51    2.09
   3   0   3    6.03    2.16
  -3   0  -3    2.37    1.81
   3   0  -3    3.55    1.99
  -3   0   3    3.91    2.02
   3   0  -3    2.69    2.45
  -3   0  -3    3.38    2.01
  -3   0  -3    3.41    1.68
   3   0   3    3.44    1.87
  -3   0  -3    3.63    2.44
   3   0   3    3.13    1.58
  -3   0   3    2.64    1.73
  -3   0   3    1.61    1.40
  -3   0  -4   94.99    4.26
  -3   0  -4   93.06    4.75
   3   0   4   90.55    5.27
  -3   0   4   96.49    5.08
  -3   0   4   98.49    3.67
   3   0   4   96.51    4.53
   3   0  -4   87.58    6.03
  -3   0  -4   95.07    5.96
   3   0   4  100.61    4.00
  -3   0   4   99.63    4.30
  -3   0   5   21.46    4.27
  -3   0   5   27.27    3.66
  -3   0  -5   23.48    5.14
  -3   0  -5   22.75    3.53
   3   0   5   23.15    3.22
   3   0   5   23.37    3.85
  -3   0  -5   25.48    3.94
   3   0  -5   26.61    5.27
   3   0   5   14.39    3.90
  -3   0   5   24.59    2.99
  -3   0   6    6.21    3.16
   3   0   6    1.45    4.38
  -3   0   6    4.47    4.04
   3   0   6    4.57    3.46
   3   0  -6    4.17    5.07
   3   0   6    6.50    4.30
  -3   0   6    6.77    4.44
  -3   0  -6    3.95    3.88
  -3   0  -6    7.44    5.37
  -3   0  -6    4.56    3.42
  -3   0   7   12.88    4.57
  -3   0   7   11.87    5.34
   3   0  -7   16.59    6.43
   3   0   7   11.03    4.83
   3   0   7   15.41    4.04
  -3   0  -7   20.27    4.50
  -3   0  -7   19.73    6.31
   3   0   7   11.27    5.51
  -3   0   7   11.47    3.54
  -3   0  -7   15.35    3.71
  -3   0  -8   12.38    4.18
   3   0   8   13.17    4.32
   3   0   8    9.90    5.55
   3   0  -8   18.75    6.98
  -3   0  -8   18.14    6.99
  -3   0   8   15.48    6.63
   3   0   8    3.54    6.44
  -3   0   8   11.10    4.21
  -3   0   8    6.00    5.10
   3   0   9   -4.01    5.81
  -3   0  -9    4.59    6.54
   3   0  -9    5.45    7.00
  -3   0   9   -0.73    7.03
  -3   0   9   -7.28    5.45
   3   0   9    2.26    4.45
  -3   0   9   -1.84    4.34
   3   0   9   -8.08    7.28
  -4   0   0  151.52    3.77
  -4   0   0  146.61    3.84
  -4   0   0  132.92    3.56
   4   0   0  152.79    3.52
   4   0   0  159.18    3.35
   4   0   0  149.83    3.96
  -4   0   0  143.26    3.44
   4   0   1  191.49    4.51
   4   0  -1  187.71    4.56
  -4   0  -1  182.23    5.19
  -4   0   1  187.96    4.19
  -4   0  -1  197.59    4.91
  -4   0   1  179.97    4.32
   4   0  -1  189.85    4.21
  -4   0   1  176.15    4.06
   4   0  -1  185.83    4.19
   4   0   1  192.56    4.19
   4   0   1  194.24    4.95
   4   0  -1  194.38    3.92
   4   0  -1  189.26    4.07
   4   0  -2  238.40    6.73
  -4   0  -2  243.01    5.85
   4   0  -2  226.97    5.76
   4   0  -2  235.90    5.01
  -4   0  -2  235.23    5.44
   4   0   2  243.86    5.13
   4   0   2  246.03    5.53
  -4   0  -2  236.60    6.31
   4   0  -2  236.90    5.04
   4   0   2  236.09    6.12
   4   0   3  112.23    4.24
  -4   0  -3  108.54    4.14
  -4   0  -3  112.52    5.28
   4   0  -3  104.38    5.45
   4   0   3  111.91    4.92
  -4   0  -3  109.01    3.44
   4   0  -3  104.55    4.53
  -4   0  -3  108.59    4.60
  -4   0   3  115.53    3.84
  -4   0   3  106.46    4.65
   4   0   3  115.96    3.75
  -4   0   4   56.24    3.09
  -4   0   4   56.20    3.67
  -4   0  -4   52.47    3.83
   4   0  -4   52.78    4.38
   4   0   4   53.94    4.75
  -4   0  -4   50.31    3.25
   4   0   4   53.19    3.50
  -4   0   4   55.66    4.39
   4   0  -4   52.25    5.29
  -4   0  -4   51.01    5.13
  -4   0  -4   54.23    4.47
   4   0   4   55.79    4.16
   4   0  -5   48.86    6.43
  -4   0   5   52.87    3.87
  -4   0   5   59.13    4.66
   4   0   5   58.19    6.09
  -4   0  -5   54.27    4.63
   4   0   5   49.97    5.06
  -4   0  -5   59.28    6.38
  -4   0  -5   51.07    5.27
   4   0   5   52.90    4.29
  -4   0   5   51.77    5.44
  -4   0  -6   43.22    6.90
  -4   0   6   42.14    6.01
  -4   0  -6   43.41    5.40
   4   0   6   47.41    5.43
   4   0   6   40.22    4.44
  -4   0   6   42.38    4.17
  -4   0  -6   38.42    5.04
   4   0  -6   38.55    7.08
   4   0   6   43.93    6.44
  -4   0   6   40.33    4.93
   4   0   7    9.21    4.72
   4   0  -7   12.04    2.88
   4   0   7    2.62    5.44
   4   0  -7    8.51    6.08
  -4   0  -7   13.03    5.88
  -4   0  -7   13.74    4.30
  -4   0   7   12.94    4.51
  -4   0   7    4.97    4.97
   4   0   7    8.36    3.76
  -4   0  -7   11.46    3.59
  -4   0   7    8.31    3.42
  -4   0   8   -6.14    4.61
   4   0   8   -4.60    6.29
  -4   0  -8    7.29    3.81
  -4   0   8   -5.36    5.80
   4   0   8   -6.31    5.01
   4   0   8    3.86    3.95
   4   0  -8    0.76    5.91
  -4   0   8   -2.97    3.43
  -4   0  -8   -3.39    5.69
  -4   0  -8   10.84    4.41
  -4   0   9   -7.60    4.19
   4   0   9   -1.41    4.25
  -4   0   9  -13.10    6.48
  -4   0  -9   -2.17    6.13
  -4   0   9   -8.25    5.27
   4   0  -9   -2.71    6.46
   5   0   0    2.77    1.35
   5   0   0   -0.27    1.43
  -5   0   0    2.49    1.65
   5   0   0   -0.63    1.71
   5   0  -1   48.21    2.11
   5   0   1   47.26    2.36
   5   0  -1   45.00    2.42
   5   0   1   44.62    3.14
   5   0  -1   46.75    2.38
   5   0  -1   44.99    2.68
  -5   0  -1   47.62    3.19
  -5   0   1   48.49    2.51
   5   0   1   47.24    2.82
  -5   0  -2    1.54    1.79
   5   0   2    2.79    1.59
   5   0  -2    3.65    1.47
  -5   0  -2    2.22    2.05
   5   0  -2    1.67    1.64
   5   0   2    5.36    1.92
   5   0  -2    3.03    1.30
   5   0  -2    3.53    2.09
   5   0   2    3.85    2.14
  -5   0   2    2.33    1.43
   5   0  -2    3.20    1.33
   5   0   3   45.15    3.00
  -5   0  -3   42.43    4.01
  -5   0   3   44.74    3.04
   5   0  -3   42.92    3.62
  -5   0  -3   42.86    3.45
   5   0   3   43.42    3.51
  -5   0   3   45.23    3.67
   5   0   3   41.75    4.11
  -5   0  -3   44.00    2.89
   5   0  -3   44.22    4.36
   5   0  -3   40.78    2.97
  -5   0  -3   45.16    3.92
  -5   0   4   33.31    3.44
   5   0   4   36.63    3.34
  -5   0  -4   35.07    4.39
  -5   0  -4   38.03    3.21
   5   0   4   37.26    4.74
  -5   0   4   37.46    4.24
   5   0   4   32.80    3.94
   5   0  -4   33.80    4.99
   5   0  -4   34.49    4.15
  -5   0   4   38.67    2.85
  -5   0  -4   36.34    4.91
  -5   0  -4   34.22    3.88
  -5   0  -5   34.20    4.75
   5   0  -5   34.59    5.85
   5   0   5   30.80    5.03
  -5   0   5   32.38    3.37
   5   0   5   34.33    3.85
  -5   0   5   33.77    4.81
  -5   0   5   37.46    4.34
   5   0   5   32.74    4.36
  -5   0  -5   37.04    5.98
  -5   0  -5   37.51    4.23
  -5   0   6   20.33    4.61
   5   0   6   17.42    3.96
   5   0   6   15.97    5.42
  -5   0   6   12.57    5.14
   5   0  -6   18.34    6.07
  -5   0  -6   13.74    5.68
  -5   0   6   16.74    3.44
  -5   0  -6   14.38    4.17
   5   0   6   12.48    4.65
  -5   0  -6   14.71    4.81
   5   0   7   40.01    7.03
  -5   0   7   44.62    6.73
   5   0  -7   45.57    8.00
  -5   0   7   40.93    5.45
  -5   0   7   43.16    4.49
  -5   0  -7   37.44    4.80
   5   0   7   41.27    5.70
  -5   0  -7   44.44    7.21
  -5   0  -7   47.49    6.00
   5   0   7   45.99    4.89
  -5   0   8   36.95    7.53
  -5   0   8   24.24    5.58
   5   0   8   29.05    4.84
   5   0  -8   31.11    8.07
   5   0   8   26.21    5.98
  -5   0  -8   35.19    7.85
  -5   0  -8   36.78    5.52
   5   0   8   23.70    7.82
  -5   0  -8   27.98    4.50
  -5   0   8   19.47    4.25
  -6   0   0   41.97    2.85
   6   0   0   37.96    2.22
   6   0   0   35.96    2.50
   6   0   0   33.37    2.86
  -6   0   1    6.50    1.63
   6   0   1    3.33    1.48
   6   0   1    6.50    2.09
   6   0  -1    5.41    1.42
  -6   0  -1    3.51    1.98
   6   0  -1    4.19    1.54
   6   0   1    3.67    1.82
   6   0  -1    1.52    1.59
  -6   0  -2  112.99    4.52
  -6   0  -2  117.82    4.21
   6   0  -2  115.78    4.85
   6   0  -2  119.03    3.66
   6   0  -2  116.81    4.25
   6   0   2  120.44    3.79
   6   0  -2  115.25    3.35
   6   0  -2  116.74    3.70
   6   0   2  116.46    4.76
   6   0   2  116.87    4.19
  -6   0   2  120.08    3.79
  -6   0  -3   32.64    4.00
  -6   0   3   35.51    3.66
   6   0   3   33.27    4.24
   6   0   3   32.98    3.06
   6   0  -3   25.86    4.25
   6   0  -3   33.77    3.61
   6   0   3   32.28    3.57
   6   0  -3   35.85    2.89
   6   0  -3   33.92    3.00
  -6   0  -3   27.57    3.63
  -6   0  -3   34.47    2.94
  -6   0  -3   27.38    3.96
  -6   0  -4    8.57    3.05
   6   0   4    9.68    3.62
  -6   0  -4   12.66    3.63
  -6   0  -4    5.22    3.57
   6   0   4    8.39    3.00
   6   0   4    9.09    2.64
  -6   0   4   11.23    3.39
   6   0  -4    7.75    3.91
  -6   0  -4   11.66    2.75
  -6   0   4   14.31    2.86
   6   0  -4   10.48    3.33
  -6   0   5   17.70    3.01
  -6   0  -5   15.59    4.45
   6   0  -5   18.90    4.39
  -6   0  -5    9.92    4.83
  -6   0  -5   10.00    3.78
   6   0   5   17.60    3.98
  -6   0   5   16.76    3.64
  -6   0  -5   12.23    3.34
   6   0   5   15.89    3.48
  -6   0   5   14.86    4.28
   6   0  -5   15.93    5.25
   6   0   5   17.89    4.97
   6   0   6   22.50    4.92
  -6   0   6   24.26    3.64
  -6   0  -6   23.74    4.54
   6   0  -6   19.74    6.38
  -6   0   6   20.49    4.46
   6   0   6   21.56    3.97
   6   0   6   16.52    5.76
  -6   0   6   21.31    5.48
  -6   0  -6   20.38    6.09
  -6   0  -6   23.43    5.34
   6   0   7   -1.36    4.34
   6   0   7   -0.35    5.57
  -6   0   7    3.54    5.24
  -6   0   7   -5.71    2.90
   6   0   7    3.80    3.43
   6   0  -7    6.86    6.00
  -6   0   7    1.09    4.04
  -6   0  -7    3.40    5.19
  -6   0  -7    3.86    4.56
  -6   0  -7    5.76    3.66
  -6   0  -8    3.97    3.67
  -6   0  -8    6.19    4.45
   6   0   8    2.05    3.80
  -6   0   8   -4.67    5.93
  -6   0   8    1.42    3.59
  -6   0  -8    0.25    5.73
   6   0  -8    0.26    5.92
  -6   0   8   -7.11    4.69
   6   0   8   -3.45    4.89
   6   0   8  -10.85    6.45
  -7   0   0    3.32    1.85
   7   0   0    5.00    1.93
   7   0   0    4.46    1.50
   7   0   0    3.28    1.70
   7   0   1   27.10    2.67
   7   0  -1   24.73    2.42
   7   0   1   26.03    2.28
   7   0  -1   27.96    2.12
  -7   0  -1   26.45    3.15
   7   0   1   26.61    3.24
   7   0  -1   24.08    2.67
  -7   0   1   29.05    2.67
   7   0  -2   23.10    3.27
   7   0  -2   23.72    2.64
  -7   0   2   23.91    2.65
   7   0   2   21.23    3.03
   7   0   2   21.01    2.30
   7   0  -2   23.82    2.23
   7   0   2   21.46    2.59
   7   0  -2   23.81    3.06
   7   0  -2   23.05    2.58
  -7   0  -2   24.02    3.16
  -7   0  -2   22.76    2.99
  -7   0  -3   14.92    3.08
   7   0   3   14.59    2.44
   7   0  -3   17.70    3.55
   7   0   3   12.36    3.29
  -7   0  -3   14.79    2.84
  -7   0   3   14.74    2.83
   7   0  -3   14.50    2.27
   7   0  -3   13.56    2.37
   7   0  -3   11.77    2.84
   7   0   3   12.94    2.71
  -7   0   4   17.35    3.77
   7   0  -4   16.35    4.40
  -7   0  -4   15.00    3.96
  -7   0   4   17.10    3.06
   7   0  -4   18.14    3.75
   7   0   4   11.37    2.87
  -7   0  -4   18.65    4.08
   7   0   4   10.33    3.32
  -7   0  -4   19.07    3.13
   7   0   4   18.78    4.36
  -7   0  -4   14.46    3.44
   7   0  -4   19.64    3.20
  -7   0   5   38.53    4.65
  -7   0  -5   32.70    3.94
   7   0   5   28.06    4.34
  -7   0   5   34.82    5.13
   7   0  -5   35.00    6.27
  -7   0  -5   39.49    5.38
   7   0   5   35.44    5.77
  -7   0  -5   30.31    5.59
   7   0   5   29.65    3.90
  -7   0   5   35.29    3.73
  -7   0  -5   33.76    4.64
   7   0  -5   32.05    5.19
  -7   0  -6   30.81    6.21
  -7   0  -6   26.57    4.61
  -7   0   6   28.26    4.48
   7   0   6   27.81    6.31
  -7   0   6   24.65    3.55
   7   0   6   30.53    4.18
   7   0   6   32.87    4.94
  -7   0   6   31.62    5.76
  -7   0  -6   29.38    5.59
   7   0  -6   29.52    6.79
  -7   0  -7   52.72    6.74
  -7   0   7   40.63    5.46
  -7   0   7   47.98    7.07
  -7   0   7   33.56    4.11
   7   0   7   27.99    7.03
  -7   0  -7   40.09    5.08
   7   0   7   38.25    4.76
   7   0  -7   42.85    7.85
   7   0   7   37.62    5.57
  -7   0  -7   42.39    6.95
   7   0  -8   26.52    7.80
   7   0   8   16.43    7.58
   7   0   8   25.27    5.97
  -7   0   8   21.14    5.57
  -7   0  -8   30.81    4.83
  -7   0   8   22.88    4.20
  -7   0   8   26.04    7.32
  -7   0  -8   29.74    5.70
   7   0   8   26.47    4.74
  -7   0  -8   19.83    6.81
   8   0   0    1.58    1.97
  -8   0   0    4.19    2.12
   8   0   0    1.29    2.17
   8   0   0    4.13    1.72
   8   0  -1    8.04    1.81
   8   0   1   11.27    2.06
   8   0  -1    9.73    2.13
  -8   0  -1    8.04    2.51
   8   0   1    7.28    2.75
   8   0  -1   10.77    2.43
  -8   0   1   11.52    2.25
   8   0   1   10.61    2.24
   8   0  -2   51.98    3.82
   8   0   2   48.50    4.46
   8   0   2   47.05    3.69
  -8   0  -2   48.17    3.82
   8   0  -2   49.28    2.82
   8   0  -2   51.22    3.34
   8   0   2   50.25    3.14
   8   0  -2   50.02    3.27
  -8   0  -2   48.05    4.32
  -8   0   2   48.52    3.43
  -8   0  -3    2.44    2.92
  -8   0  -3    1.65    3.23
   8   0  -3    4.91    2.31
   8   0  -3    3.67    3.36
   8   0   3    3.99    2.84
  -8   0   3    4.74    2.37
  -8   0   3    3.35    3.33
   8   0  -3    6.31    2.53
   8   0  -3    5.63    2.89
   8   0   3    7.25    3.53
   8   0   3    6.56    2.47
  -8   0   4    0.62    2.72
   8   0   4    0.71    2.69
   8   0   4    6.05    4.27
   8   0  -4    1.74    2.48
   8   0   4    2.63    3.34
  -8   0  -4    1.83    3.07
  -8   0  -4    3.95    4.01
   8   0  -4    4.23    3.17
   8   0  -4    3.15    3.51
  -8   0  -4    1.94    3.48
  -8   0   4    2.85    2.88
  -8   0   4    4.83    3.47
   8   0  -4    2.47    4.19
   8   0   5    1.95    3.40
  -8   0  -5    6.00    4.66
  -8   0  -5    6.02    4.03
  -8   0  -5    4.23    4.78
   8   0   5    2.62    4.92
   8   0   5   -0.51    3.89
  -8   0   5    0.48    4.18
  -8   0   5   -0.29    3.46
   8   0  -5   -3.96    4.83
  -8   0  -5   -0.87    3.27
   8   0  -5    3.71    4.33
  -8   0   6    0.23    3.60
  -8   0  -6    4.82    4.85
   8   0   6    5.04    4.12
  -8   0  -6    1.80    3.31
  -8   0  -6    3.39    4.75
   8   0   6   -4.60    5.14
  -8   0  -6    5.61    3.88
  -8   0   6   -2.03    4.35
   8   0   6    2.52    3.35
  -8   0   6    0.70    2.86
   8   0  -6    2.18    5.30
  -8   0  -7    2.33    4.97
  -8   0  -7    3.76    4.09
   8   0   7   -5.04    5.79
   8   0   7   -2.51    4.57
   8   0  -7    4.19    6.00
  -8   0  -7    0.54    3.41
  -8   0   7   -1.17    5.17
   8   0   7   -3.91    3.55
  -8   0  -7    0.84    4.97
  -8   0   7    1.49    3.18
  -8   0   7   -1.94    4.08
  -8   0  -8    8.36    5.14
  -8   0   8   -8.81    3.15
  -8   0  -8   -1.57    5.29
   8   0  -8    1.64    6.39
   8   0   8   -0.32    3.87
  -8   0   8   -5.59    4.46
   8   0   8   -7.94    6.39
  -8   0  -8   -0.60    3.80
  -8   0   8    3.56    6.23
   8   0   8   -0.10    5.05
   9   0   0   -1.55    2.46
  -9   0   0    1.35    2.34
   9   0   0    2.34    2.29
   9   0   0   -0.62    1.86
   9   0  -1   12.14    2.72
  -9   0   1   11.39    2.53
  -9   0  -1    9.20    2.75
   9   0   1   10.89    3.27
   9   0  -1    9.70    2.39
   9   0   1    9.26    2.14
   9   0   1    9.40    2.44
   9   0  -1    7.02    1.92
   9   0  -2   28.21    3.23
  -9   0  -2   33.13    3.81
   9   0   2   26.46    2.98
   9   0  -2   30.06    2.79
   9   0   2   28.36    3.31
   9   0  -2   27.41    3.72
   9   0   2   30.46    4.56
  -9   0  -2   26.90    3.60
  -9   0   2   30.69    3.46
  -9   0  -3   21.97    3.70
   9   0   3   18.83    2.85
  -9   0   3   26.31    3.61
  -9   0  -3   27.35    4.25
   9   0   3   19.21    3.29
   9   0   3   21.00    4.20
   9   0  -3   23.23    4.20
   9   0  -3   22.74    3.02
  -9   0   3   24.09    4.35
   9   0  -3   22.11    2.91
   9   0  -3   24.31    3.85
   9   0  -3   27.66    3.40
  -9   0   4   14.65    3.32
   9   0  -4   21.94    4.41
  -9   0  -4   16.87    3.59
  -9   0  -4   16.47    4.33
   9   0  -4   20.01    3.86
   9   0   4   21.09    4.09
  -9   0  -4   22.71    4.89
   9   0   4   15.73    4.94
  -9   0   4   20.21    4.27
   9   0   4   18.52    3.51
   9   0  -4   16.89    3.23
  -9   0   4   14.13    4.82
   9   0  -4   13.45    4.90
  -9   0  -5   12.11    5.61
  -9   0  -5   16.05    5.03
   9   0   5   17.16    3.78
  -9   0   5    9.25    4.64
   9   0  -5   10.24    5.64
   9   0  -5   18.80    5.16
  -9   0  -5   13.66    4.56
  -9   0   5   12.04    4.09
   9   0   5   18.32    5.90
  -9   0  -5   10.31    3.67
   9   0   5   12.99    4.31
  -9   0   6   34.86    5.93
   9   0   6   35.35    6.61
   9   0  -6   39.04    6.21
  -9   0  -6   31.97    5.08
  -9   0  -6   41.30    6.35
  -9   0   6   38.11    4.86
   9   0   6   35.39    5.07
  -9   0   6   30.75    3.83
  -9   0  -6   28.38    4.13
   9   0   6   35.00    4.28
  -9   0  -6   37.51    6.29
   9   0  -6   38.70    6.99
  -9   0  -7   19.30    4.09
  -9   0   7   17.36    3.64
  -9   0  -7   15.35    4.64
   9   0  -7   21.64    6.94
   9   0   7   20.55    4.31
   9   0   7   12.26    6.74
   9   0   7   24.35    5.42
  -9   0   7   18.22    6.05
  -9   0   7   10.49    4.53
  -9   0  -7   16.18    5.86
  -9   0  -7   20.29    5.99
  -9   0  -8    7.96    5.97
   9   0   8    4.51    7.17
   9   0   8    9.07    4.19
  -9   0  -8   23.40    5.77
  -9   0   8   23.80    6.94
   9   0  -8    9.98    7.34
  -9   0   8    8.53    6.46
  -9   0   8    9.86    3.81
  -9   0  -8   17.36    4.71
   9   0   8   10.49    5.16
  -9   0   8    2.64    4.84
 -10   0   0   53.51    4.33
  10   0   0   58.41    3.77
  10   0   0   61.70    4.61
  10   0   0   53.16    3.40
  10   0  -1   53.59    4.29
  10   0   1   56.40    5.16
  10   0  -1   53.88    3.31
  10   0  -1   52.08    3.82
  10   0   1   49.45    3.33
 -10   0  -1   47.00    4.51
 -10   0   1   53.74    4.19
  10   0   1   49.80    3.94
 -10   0  -2   38.08    4.36
 -10   0  -2   35.61    4.83
  10   0  -2   39.05    3.73
 -10   0   2   45.62    4.22
  10   0  -2   44.67    4.43
  10   0  -2   35.94    3.28
  10   0   2   39.44    3.60
  10   0   2   36.47    5.22
  10   0   2   36.01    4.08
 -10   0   3   38.61    4.29
  10   0  -3   36.10    3.55
  10   0   3   30.41    4.88
  10   0  -3   32.25    5.02
  10   0   3   28.29    3.36
 -10   0  -3   33.35    4.94
 -10   0   3   32.15    5.20
  10   0  -3   34.66    3.84
  10   0   3   23.80    3.84
 -10   0  -3   31.73    4.41
  10   0  -3   34.10    4.86
  10   0  -3   35.76    4.11
 -10   0  -4   11.99    4.66
 -10   0  -4   10.40    5.00
 -10   0  -4    6.90    3.52
  10   0   4    7.53    3.27
  10   0  -4    8.29    3.81
  10   0   4    8.76    5.00
  10   0   4    9.58    3.85
 -10   0   4    9.75    4.08
  10   0  -4    6.85    3.21
  10   0  -4    5.84    4.63
  10   0  -4    6.42    4.27
 -10   0   4   11.92    3.38
 -10   0   4    6.35    4.81
 -10   0   5   10.27    4.87
 -10   0   5    4.43    3.72
 -10   0  -5    9.18    4.97
  10   0  -5   12.20    4.86
  10   0   5    6.52    3.57
 -10   0  -5    5.69    3.57
  10   0   5    5.40    5.47
  10   0   5   10.15    4.34
  10   0  -5    8.47    5.47
 -10   0  -5   11.28    4.64
 -10   0   5    6.69    5.22
 -10   0  -5    7.76    5.50
  10   0  -6    7.56    5.76
 -10   0  -6    6.91    4.57
 -10   0   6    4.44    3.93
  10   0   6    2.29    4.16
  10   0  -6    1.25    4.96
 -10   0  -6    9.27    4.58
 -10   0   6    7.77    5.22
 -10   0   6    6.64    3.00
 -10   0   6    6.85    4.95
  10   0   6    8.34    3.70
 -10   0  -6    9.40    3.72
 -10   0  -6    4.70    5.49
  10   0   6    1.18    5.69
 -10   0   7   -2.18    3.01
 -10   0  -7    7.17    4.38
 -10   0  -7    4.69    3.76
 -10   0  -7   -1.53    5.50
  10   0   7    0.17    4.56
  10   0  -7   -1.41    5.87
 -10   0   7    5.62    5.50
  10   0   7    0.41    3.64
 -10   0   7   -3.42    5.02
  10   0   7   -3.59    6.34
 -10   0   7    4.38    4.22
 -10   0  -7    0.67    5.04
  10   0   8    0.71    4.02
 -10   0   8    5.56    5.68
 -10   0   8    1.72    6.36
 -10   0   8   -2.71    3.43
 -10   0  -8    9.04    5.61
 -10   0  -8    5.55    4.43
  10   0   8   -2.22    5.04
  10   0   8   -8.77    6.99
  10   0  -8    0.03    6.60
 -10   0   8   -5.29    4.69
  11   0   0    0.57    3.24
 -11   0   0   -0.24    3.08
  11   0   0    1.72    2.46
  11   0   0    2.50    2.88
  11   0   1    6.04    3.02
  11   0  -1    5.76    2.53
  11   0  -1    9.47    3.53
  11   0  -1   11.56    3.07
  11   0   1    8.04    4.13
 -11   0   1    9.98    3.28
 -11   0  -1    7.57    3.42
  11   0   1   13.37    2.83
  11   0   2   12.53    3.48
  11   0   2   14.28    4.40
 -11   0  -2   15.59    3.84
  11   0  -2   17.25    3.35
  11   0  -2   13.26    3.98
  11   0   2   11.48    2.98
 -11   0  -2   15.79    3.96
 -11   0   2   14.22    3.47
  11   0  -2   15.53    3.02
  11   0  -3    5.07    3.48
 -11   0  -3    2.61    4.08
  11   0  -3    2.38    3.83
  11   0   3    5.85    3.02
 -11   0   3    7.87    3.47
 -11   0  -3    9.27    4.70
  11   0  -3    7.63    3.01
  11   0   3    7.91    3.59
  11   0   3    6.72    4.61
  11   0  -4    4.82    3.44
 -11   0   4    1.04    4.60
 -11   0  -4    4.65    5.20
  11   0   4    4.66    3.31
  11   0  -4    9.82    4.50
 -11   0  -4    5.47    4.99
 -11   0  -4   -0.48    3.42
  11   0   4    3.95    3.85
 -11   0   4    6.41    3.62
  11   0  -4    4.02    3.96
 -11   0   4    3.52    4.09
  11   0  -4    6.78    4.90
  11   0   4    5.23    5.15
  11   0  -5   20.09    3.65
 -11   0   5   24.61    3.90
 -11   0   5   21.47    5.16
 -11   0   5   22.86    4.08
 -11   0  -5   18.71    5.39
 -11   0  -5   10.25    3.50
  11   0   5   19.62    4.23
  11   0   5   16.03    5.71
  11   0   5   18.71    3.65
 -11   0  -5   17.92    5.66
  11   0  -5   24.75    5.33
  11   0  -5   20.65    5.62
  11   0  -5   25.47    4.49
 -11   0   5   19.66    5.43
 -11   0   6   18.19    5.46
  11   0   6   14.03    3.95
 -11   0   6   12.44    4.35
 -11   0   6   18.84    5.96
  11   0   6    8.14    6.20
  11   0  -6   20.83    5.81
  11   0   6   14.35    4.69
 -11   0  -6   13.27    5.05
  11   0  -6   16.51    6.14
 -11   0  -6   18.88    4.14
 -11   0  -6   15.98    6.13
  11   0   7   -0.28    6.50
 -11   0  -7    7.65    6.07
 -11   0  -7   14.73    4.87
 -11   0   7    5.52    4.31
 -11   0  -7    7.58    3.83
  11   0  -7    8.76    6.44
 -11   0   7   12.64    5.89
 -11   0   7   12.23    3.69
 -11   0   7    8.16    5.65
  11   0   7    6.52    4.04
  11   0   7    9.14    4.87
  12   0   0   71.16    5.05
  12   0   0   70.94    4.32
 -12   0   0   73.56    5.67
  12   0   0   68.97    5.82
  12   0   1   70.19    6.23
  12   0  -1   72.22    5.59
 -12   0  -1   72.27    5.84
  12   0  -1   69.84    4.31
 -12   0   1   75.32    5.62
  12   0   1   69.79    5.10
  12   0  -1   71.36    4.93
  12   0   1   66.81    4.41
 -12   0  -2   18.65    4.38
  12   0  -2   20.95    3.37
 -12   0   2   37.66    5.01
  12   0  -2   26.79    3.78
  12   0   2   23.01    3.90
  12   0   2   18.25    3.28
  12   0  -2   28.51    4.68
 -12   0  -2   27.43    4.63
  12   0   2   27.07    5.30
 -12   0   3   25.85    4.43
  12   0  -3   27.78    4.85
 -12   0  -3   28.63    5.12
  12   0   3   19.71    5.39
  12   0  -3   27.39    3.76
  12   0   3   29.71    4.35
  12   0   3   23.46    3.73
  12   0  -3   23.08    4.34
 -12   0  -3   28.88    5.66
 -12   0  -4   12.07    5.55
  12   0   4   18.62    3.67
 -12   0  -4   13.48    3.78
  12   0  -4   15.91    4.97
  12   0  -4   18.20    5.12
 -12   0  -4   16.38    5.48
  12   0  -4   16.76    4.35
 -12   0   4   14.37    4.88
 -12   0   4   17.30    4.15
  12   0   4    8.21    5.43
 -12   0   4   16.21    4.60
  12   0   4   15.26    4.21
 -12   0  -5   13.60    5.76
  12   0  -5   12.91    5.51
  12   0  -5   10.02    3.64
 -12   0  -5    7.04    3.72
 -12   0  -5    9.61    5.69
  12   0  -5   11.80    5.05
  12   0   5   11.63    5.78
 -12   0   5    9.26    5.00
 -12   0   5   12.41    5.02
 -12   0   5   16.35    3.87
  12   0   5   15.18    4.34
 -12   0   5    9.27    3.89
  12   0   5    9.97    3.47
  12   0  -5   15.31    4.39
  12   0  -6   13.47    5.49
  12   0   6    8.02    3.79
  12   0   6    8.97    4.47
 -12   0  -6    8.37    6.24
 -12   0   6    1.60    4.20
  12   0   6    4.85    6.30
 -12   0  -6    8.05    3.86
 -12   0   6   11.63    5.59
  12   0  -6    3.90    5.71
 -12   0   6    9.25    5.25
 -12   0  -6    9.41    5.04
 -12   0  -7   13.15    6.43
  12   0   7   -2.11    6.86
 -12   0   7   -9.41    5.17
 -12   0  -7    6.41    4.11
  12   0   7    0.53    4.65
  12   0  -7   -0.30    5.85
 -12   0  -7    6.25    4.80
 -12   0   7    2.96    3.18
  12   0   7    6.50    3.87
 -12   0   7   -1.19    4.05
 -12   0   7    4.69    5.45
  13   0   0   -0.92    3.58
  13   0   0   -0.69    3.13
  13   0   0    5.03    4.16
 -13   0   0    1.53    3.95
 -13   0  -1    3.62    4.14
  13   0   1    0.95    3.72
 -13   0   1    3.57    3.99
  13   0  -1    4.11    3.15
  13   0  -1   -1.14    3.53
  13   0   1    0.51    3.17
  13   0  -1    0.52    3.94
  13   0   1    3.34    4.55
 -13   0   2   -1.74    3.88
  13   0   2    0.59    3.11
  13   0  -2    4.81    4.24
  13   0  -2    1.41    3.59
  13   0  -2    0.04    3.12
 -13   0  -2   -1.80    4.42
 -13   0  -2    0.04    4.24
  13   0   2   -0.27    3.67
  13   0   2    5.96    5.07
  13   0  -3   -0.94    3.25
  13   0   3   -2.41    5.03
  13   0  -3    1.45    3.88
 -13   0   3   -1.39    3.88
  13   0  -3   -3.47    4.18
  13   0   3    4.74    3.86
  13   0   3    0.92    3.14
 -13   0  -3   -6.24    5.09
 -13   0  -3    1.78    5.04
  13   0   4    7.59    3.97
  13   0  -4    9.75    4.60
  13   0  -4    7.22    4.06
 -13   0   4    0.95    3.84
 -13   0  -4    3.34    5.29
  13   0   4    2.81    3.16
 -13   0   4    6.48    4.13
  13   0   4    1.04    5.17
 -13   0  -4    1.62    5.29
 -13   0  -4    1.11    3.28
 -13   0  -5    2.59    3.73
  13   0   5    3.86    5.79
  13   0  -5    1.01    4.92
 -13   0   5    6.48    4.79
 -13   0   5    1.75    4.86
  13   0   5    2.77    4.04
  13   0  -5    3.58    4.85
 -13   0   5    5.86    4.06
 -13   0  -5    4.45    5.97
 -13   0  -5   -1.63    5.76
  13   0  -5    1.65    4.31
  13   0   5    3.78    3.28
 -13   0   5    3.89    3.60
 -13   0  -6    3.44    5.03
  13   0   6    5.75    3.66
 -13   0  -6    2.35    3.87
 -13   0   6    4.46    5.45
  13   0   6    7.09    4.63
 -13   0   6    5.60    4.32
  13   0   6    3.25    6.28
 -13   0  -6    2.58    6.21
  13   0  -6    3.33    5.05
  13   0  -6   -2.67    5.54
 -13   0   6    2.46    4.87
 -13   0  -7    6.08    5.19
  13   0   7   -0.73    7.07
  13   0   7    3.23    4.59
 -13   0  -7    7.25    6.63
 -13   0   7   -2.28    5.46
  13   0   7    0.77    3.77
  13   0  -7   -2.17    6.10
 -13   0   7    7.27    3.38
 -13   0   7   -2.38    4.44
 -13   0   7    2.79    5.84
 -13   0  -7    2.72    4.16
 -14   0   0   29.83    5.17
  14   0   0   29.19    4.34
  14   0   0   28.96    5.04
  14   0   0   26.00    3.94
 -14   0  -1   46.05    6.31
  14   0   1   46.89    6.63
  14   0   1   40.84    4.55
  14   0  -1   49.15    5.23
 -14   0   1   45.34    5.94
  14   0  -1   35.66    4.09
  14   0   1   35.96    4.85
  14   0  -1   46.14    5.82
  14   0  -2   59.39    4.69
 -14   0  -2   66.44    6.57
  14   0  -2   64.02    5.34
  14   0   2   61.50    4.75
  14   0   2   64.07    5.57
  14   0  -2   68.32    6.24
 -14   0  -2   62.39    6.67
 -14   0   2   70.68    6.23
  14   0   2   66.97    7.08
 -14   0  -3   21.59    5.73
  14   0  -3   23.78    4.90
  14   0  -3   19.63    3.67
  14   0  -3   20.99    4.35
  14   0   3   18.79    3.63
  14   0   3   19.49    5.54
  14   0   3   19.94    4.26
 -14   0   3   18.65    4.63
 -14   0  -3   12.24    5.21
 -14   0  -4   11.91    3.84
 -14   0  -4   16.47    6.03
 -14   0  -4   10.97    5.89
  14   0   4   10.96    5.60
  14   0  -4   18.81    4.48
 -14   0   4   17.47    4.61
  14   0   4   10.82    4.17
  14   0   4   10.25    3.61
  14   0  -4   18.89    4.97
 -14   0   5    7.29    7.10
 -14   0   5   21.56    5.48
 -14   0  -5   13.84    6.56
 -14   0  -5   11.62    4.24
  14   0  -5   11.14    6.08
  14   0   5   20.52    4.93
  14   0   5   17.40    4.02
  14   0  -5   24.85    5.87
 -14   0  -5   18.76    6.88
  14   0   5   12.20    6.25
  14   0  -5   14.04    5.01
 -14   0   5   22.00    4.99
 -14   0   5   16.59    4.32
 -14   0  -6    3.92    5.21
 -14   0   6    4.31    5.15
 -14   0   6   -0.76    6.58
  14   0   6    1.89    3.63
  14   0   6    8.66    4.71
  14   0  -6    9.70    5.69
  14   0   6    1.21    6.30
 -14   0  -6    5.99    3.94
 -14   0   6    1.28    4.06
  14   0  -6   -1.40    5.80
 -14   0  -6    6.72    6.60
  15   0   0    2.38    3.73
  15   0   0   -3.52    3.14
  15   0   0    5.20    4.00
 -15   0   0   -2.05    4.44
  15   0   1    2.29    3.97
  15   0  -1    2.44    3.24
 -15   0  -1   -3.15    4.37
  15   0  -1    7.77    3.78
  15   0   1   -0.02    3.39
 -15   0   1   -1.77    4.46
  15   0   1    0.08    4.67
  15   0  -1   11.94    4.17
 -15   0  -2   11.72    5.17
  15   0  -2   12.15    4.54
  15   0  -2    7.35    3.66
  15   0   2   12.35    5.21
  15   0   2   12.15    3.70
  15   0  -2    5.67    3.31
 -15   0  -2    0.07    5.04
 -15   0   2    3.20    4.48
  15   0   2    9.74    4.24
 -15   0   3    1.28    4.26
  15   0  -3   10.94    4.47
  15   0  -3   -1.11    3.33
 -15   0  -3    1.02    5.37
 -15   0  -3   -4.54    5.34
  15   0   3    3.13    5.29
  15   0   3    3.36    3.26
  15   0   3   -0.61    3.83
  15   0  -3    5.68    3.98
  15   0  -4    3.83    4.71
  15   0   4    4.40    3.57
  15   0   4    2.42    4.13
 -15   0   4   -2.36    4.42
 -15   0  -4   -2.77    5.78
  15   0   4   -3.40    5.26
 -15   0  -4   -5.76    6.06
 -15   0  -4   -3.10    3.62
  15   0  -4    0.60    4.26
 -15   0  -5   12.27    6.96
 -15   0  -5    1.65    3.97
 -15   0   5    3.67    4.76
 -15   0  -5   -0.54    6.48
  15   0   5    3.82    3.69
 -15   0   5   -5.89    4.34
  15   0   5    2.82    5.81
  15   0  -5    2.42    4.59
  15   0   5    3.95    4.32
  15   0  -5    0.37    4.93
  15   0   6   -6.47    6.17
 -15   0  -6    0.57    4.07
  15   0   6    0.11    4.63
  15   0  -6    6.09    5.61
 -15   0  -6   -0.78    6.69
 -15   0   6    3.75    4.20
  15   0   6    1.40    3.93
 -15   0   6   -1.05    4.93
 -15   0  -6   -1.84    5.41
  16   0   0   24.71    4.61
  16   0   0   16.33    3.82
 -16   0   0   13.50    5.09
  16   0   0   16.43    4.19
  16   0   1   26.10    4.18
  16   0  -1   44.55    5.11
  16   0   1   45.27    6.08
 -16   0  -1   29.63    5.61
  16   0  -1   31.48    3.97
  16   0   1   29.35    4.74
 -16   0   1   29.89    5.48
  16   0  -2   23.20    5.01
  16   0   2   24.87    5.48
  16   0  -2   25.14    4.52
 -16   0  -2   14.83    5.69
  16   0   2   17.52    4.53
  16   0   2   23.41    4.21
  16   0  -2   17.02    3.99
 -16   0  -2   19.86    5.73
 -16   0   2   21.51    5.22
 -16   0   3   24.27    5.30
  16   0  -3   22.85    4.24
  16   0   3   14.15    5.68
  16   0  -3   23.31    4.70
  16   0   3   22.62    4.57
  16   0   3   16.25    3.77
 -16   0  -3   20.51    6.38
 -16   0  -3   24.25    6.49
  16   0  -3   22.64    5.02
  16   0   4   16.81    4.06
 -16   0  -4   13.36    6.74
 -16   0  -4   13.09    4.34
  16   0  -4   22.33    4.95
  16   0  -4   26.77    5.55
  16   0   4   11.28    4.69
 -16   0   4   13.17    5.07
  16   0   4   10.86    5.94
 -16   0  -4   15.26    7.00
  16   0  -4   19.19    4.11
 -16   0  -5   11.50    7.20
 -16   0  -5    2.42    6.65
 -16   0  -5    5.25    4.42
  16   0   5    9.87    3.88
  16   0  -5    4.29    4.91
 -16   0   5    8.83    5.02
  16   0  -5   11.74    5.49
  16   0   5   12.27    6.42
  16   0   5   13.71    4.84
  17   0   0    3.54    3.91
  17   0   0    4.61    3.56
 -17   0   0    1.20    5.01
  17   0   0   11.69    4.35
  17   0  -1   12.67    4.29
  17   0   1    1.13    4.28
  17   0   1   11.92    4.70
  17   0  -1    6.17    3.46
  17   0   1    1.99    3.74
  17   0  -1    4.86    3.87
 -17   0   1   -1.73    4.93
 -17   0  -1    1.65    5.16
  17   0  -2    4.01    3.84
  17   0   2    3.02    3.94
  17   0   2    0.67    4.40
 -17   0  -2    1.52    5.78
 -17   0   2   -3.17    4.87
 -17   0  -2    0.81    5.65
  17   0  -2   14.73    4.74
  17   0   2   16.12    5.48
  17   0  -2    8.16    4.26
  17   0  -3    5.88    4.64
  17   0  -3    7.88    3.88
  17   0   3    2.90    4.01
 -17   0   3   -3.19    5.07
  17   0  -3    7.49    4.47
  17   0   3    3.62    4.83
 -17   0  -3    1.78    6.08
  17   0   3    2.51    5.52
 -17   0  -3    0.40    6.07
  17   0   4    3.11    3.47
 -17   0  -4   -5.17    6.42
  17   0   4    2.75    4.42
 -17   0   4   -5.61    4.81
 -17   0  -4   -1.77    4.17
  17   0   4    0.23    5.71
  17   0  -4   11.42    5.09
 -17   0  -4   -3.81    6.50
  17   0  -4    4.12    3.76
  17   0  -4    7.00    4.55
  18   0   0   21.34    4.25
  18   0   0   23.76    4.64
 -18   0   0   13.96    5.92
  18   0   1   15.56    4.72
  18   0  -1   18.55    4.36
  18   0   1   24.30    4.99
 -18   0  -1    6.23    5.65
 -18   0   1    6.92    5.62
  18   0   1   10.27    4.18
  18   0  -1    9.75    3.75
 -18   0  -2   -2.73    6.14
  18   0   2   12.36    4.96
  18   0  -2   16.09    4.62
 -18   0  -2    6.57    6.13
  18   0  -2   17.96    5.01
  18   0  -2    9.73    4.10
 -18   0   2   12.71    5.74
  18   0   2   10.84    4.19
  18   0   2   15.52    5.30
  18   0   3   16.08    5.35
 -18   0   3    1.91    5.50
 -18   0  -3    7.13    6.47
  18   0   3   17.66    4.69
  18   0  -3   21.59    6.44
  18   0  -3   15.40    4.79
  18   0  -3    5.50    3.91
 -18   0  -3    8.96    6.75
  18   0   3    8.03    5.44
  18   0   4    8.01    6.08
 -18   0  -4    3.43    7.08
  18   0   4    9.39    4.84
 -18   0  -4    1.78    6.81
  18   0  -4    7.46    4.14
  18   0   4    5.54    3.88
 -18   0   4   -2.32    5.42
 -18   0  -4    8.35    4.76
  18   0  -4   12.00    4.75
 -19   0   0    3.94    5.83
  19   0   0   12.78    4.39
  19   0   0    6.88    3.91
  19   0  -1    0.03    3.60
 -19   0   1    2.51    5.79
 -19   0  -1    9.04    6.58
  19   0   1    7.44    4.04
 -19   0  -1    1.36    5.80
  19   0   1    8.05    4.55
  19   0   1   12.60    5.99
  19   0  -1   12.02    4.29
  19   0   2   20.31    6.36
  19   0   2    6.50    4.29
  19   0  -2    8.97    4.05
  19   0  -2   10.27    4.49
 -19   0  -2   -9.60    5.94
 -19   0  -2    0.42    6.49
 -19   0   2   -6.06    5.26
  19   0   2    2.89    4.84
  20   0   0    8.34    4.53
 -20   0   0    4.68    6.30
  20   0   0    5.07    4.26
   0  -1   0   -0.02    0.10
   0   1   0    0.21    0.15
   0   1   0   -0.21    0.16
   0  -1   0   -0.20    0.15
   0   1  -1   44.41    2.00
   0   1   1   45.38    1.22
   0   1   1   45.83    1.40
   0  -1   1   44.94    1.63
   0   1   1   44.52    1.50
   0   1  -1   43.70    1.62
   0  -1  -1   41.97    1.56
   0  -1   1   44.33    1.58
   0  -1   1   44.62    1.30
   0   1   1   43.39    1.60
   0  -1  -1   46.42    1.43
   0  -1   1   41.86    1.44
   0  -1  -1   46.15    1.56
   0   1  -1   43.16    1.55
   0  -1  -1   46.29    1.94
   0   1   1   45.11    1.89
   0  -1  -1   46.19    1.23
   0  -1   2   21.35    2.46
   0   1   2   18.87    2.70
   0   1   2   22.47    2.23
   0   1  -2   20.35    3.02
   0   1   2   19.90    1.77
   0   1   2   20.22    2.47
   0  -1  -2   18.86    1.99
   0   1   2   19.00    2.25
   0  -1  -2   19.12    2.14
   0  -1  -2   16.13    1.91
   0  -1  -2   16.29    1.45
   0   1   2   20.48    1.78
   0  -1   2   22.68    2.12
   0  -1   2   19.82    2.01
   0  -1  -2   22.07    3.00
   0  -1   3   17.16    2.22
   0   1   3   16.80    1.77
   0  -1   3   18.70    2.04
   0   1  -3   14.56    3.10
   0   1   3   18.24    2.11
   0  -1  -3   15.67    1.98
   0  -1  -3   15.72    2.18
   0  -1  -3   15.53    3.10
   0   1   3   19.40    2.66
   0  -1   3   19.06    2.67
   0   1   4    9.84    2.06
   0  -1  -4   11.67    2.49
   0   1   4    9.74    2.88
   0  -1   4    7.78    2.79
   0  -1  -4    9.14    2.21
   0   1   4   15.14    2.58
   0   1  -4    9.18    3.48
   0  -1   4   11.20    2.20
   0  -1  -4    8.75    3.32
   0  -1   4   11.46    2.55
   0  -1   5    3.62    3.22
   0  -1   5    5.91    2.64
   0  -1  -5   -0.56    2.48
   0  -1  -5    1.20    2.61
   0  -1  -5    4.86    3.96
   0   1   5    0.70    2.45
   0   1   5    3.49    3.35
   0  -1   5    8.22    3.03
   0   1  -5    2.25    3.60
   0   1   5    4.01    3.06
   0   1   6    5.89    4.37
   0  -1  -6    4.58    3.36
   0   1   6    4.32    3.15
   0  -1   6    3.46    4.15
   0   1  -6    4.24    4.88
   0  -1   6    6.74    3.46
   0  -1  -6    4.89    4.87
   0   1   6    5.22    3.96
   0  -1   6    4.89    4.02
   0   1   7   -2.79    4.30
   0  -1   7   -3.76    3.56
   0   1   7   -3.75    3.28
   0   1   7   -0.77    4.87
   0  -1   7    0.06    4.39
   0   1  -7    4.28    5.41
   0  -1  -7    2.39    3.38
   0  -1   7   -0.85    4.65
   0  -1  -7   -0.52    4.95
   0  -1  -8    6.70    3.75
   0   1   8   -4.87    5.93
   0  -1   8   -0.15    3.94
   0  -1  -8    4.33    5.78
   0   1   8   -7.65    4.62
   0   1   8   -2.98    3.64
   0  -1   8   -0.09    5.72
   0   1  -8    4.43    5.93
   0  -1   8   -7.42    4.76
   0   1  -9    1.60    6.43
   0   1   9  -15.24    5.34
   0  -1   9   -3.13    4.30
   0  -1  -9    3.60    6.61
   0  -1   9  -11.30    6.44
   0   1   9   -3.05    4.02
   0   1   9   -7.51    7.09
   0  -1   9  -13.99    5.00
  -1  -1   0    2.36    0.29
  -1  -1   0    1.77    0.33
   1  -1   0    1.76    0.25
  -1   1   0    1.68    0.32
   1   1   0    2.42    0.29
  -1  -1   0    2.14    0.29
   1  -1   0    1.75    0.31
   1   1   0    1.34    0.31
   1  -1   0    2.17    0.49
   1   1   0    1.77    0.24
  -1   1   0    2.27    0.50
  -1  -1   0    2.09    0.26
   1   1   0    2.62    0.43
  -1   1   0    1.42    0.29
  -1   1   0    1.53    0.24
  -1  -1  -1   24.98    1.13
  -1  -1  -1   24.57    1.25
   1  -1   1   25.80    1.30
  -1  -1  -1   24.60    1.55
   1   1  -1   25.56    1.38
  -1  -1  -1   25.18    1.41
  -1   1   1   27.14    1.14
  -1   1   1   25.85    1.22
   1   1  -1   23.30    1.00
  -1   1   1   25.98    0.94
   1  -1   1   25.86    1.14
   1  -1   1   26.91    1.64
   1   1  -1   24.71    1.72
  -1  -1  -1   25.41    1.09
  -1   1   1   23.84    1.28
   1  -1   1   23.49    1.35
  -1   1   1   25.34    1.29
  -1  -1  -1   26.39    0.94
   1  -1  -1   26.29    1.68
  -1   1  -1   24.58    1.30
   1  -1  -1   25.66    0.97
   1   1   1   25.65    0.95
   1  -1  -1   25.85    1.12
  -1   1  -1   25.16    1.68
   1   1   1   26.05    1.51
   1   1   1   24.97    1.46
   1  -1  -1   25.11    1.23
   1   1   1   24.68    1.32
   1   1   1   26.74    1.07
   1   1   1   25.41    1.20
  -1  -1   1   24.50    1.19
  -1  -1   1   23.81    1.57
   1   1   1   26.27    1.14
   1  -1  -1   23.94    1.22
  -1   1   2   63.58    2.11
  -1  -1  -2   54.62    3.20
   1  -1   2   59.33    3.28
  -1   1   2   57.89    2.57
  -1   1   2   56.29    3.16
  -1   1   2   55.56    2.77
  -1   1   2   55.62    2.88
  -1  -1  -2   56.92    2.45
  -1  -1  -2   58.98    3.78
   1  -1   2   61.52    2.58
   1   1  -2   60.08    4.03
   1  -1   2   61.87    2.99
   1   1  -2   59.37    3.28
  -1  -1  -2   54.91    2.50
  -1  -1  -2   57.83    2.10
  -1  -1  -2   56.18    2.92
   1   1   2   61.26    3.36
  -1   1  -2   56.42    3.99
   1  -1  -2   54.75    2.85
  -1  -1   2   59.35    2.39
   1  -1  -2   56.45    3.90
   1   1   2   62.23    2.86
   1  -1  -2   55.25    2.36
  -1  -1   2   59.31    2.77
   1  -1  -2   58.72    2.57
   1   1   2   62.25    2.32
  -1  -1   2   54.65    3.20
  -1  -1  -3   26.94    2.11
  -1   1   3   28.02    1.98
  -1   1   3   28.20    3.05
   1  -1   3   28.98    2.39
  -1  -1  -3   28.07    3.57
   1  -1   3   24.09    2.71
  -1  -1  -3   25.27    2.50
  -1   1   3   29.08    2.48
  -1  -1  -3   26.37    2.81
   1   1  -3   27.78    3.76
   1  -1   3   25.41    3.08
   1  -1  -3   26.78    2.26
  -1  -1   3   28.59    2.71
  -1   1  -3   26.93    3.66
   1  -1  -3   27.76    2.58
   1   1   3   28.33    3.24
   1  -1  -3   29.72    3.65
  -1  -1   3   27.47    2.23
   1   1   3   25.05    2.68
  -1  -1   3   30.36    3.00
   1   1   3   31.65    2.22
  -1   1   4  169.68    4.58
  -1   1   4  170.59    5.16
   1  -1   4  160.30    6.31
  -1   1   4  166.74    6.32
   1   1  -4  159.22    7.33
   1  -1   4  173.68    5.02
  -1  -1  -4  164.03    5.08
   1  -1   4  162.92    5.45
  -1  -1  -4  159.72    5.50
  -1  -1  -4  169.73    7.30
  -1  -1   4  164.06    6.36
   1   1   4  172.23    6.48
   1  -1  -4  171.74    4.96
  -1  -1   4  168.76    5.41
  -1   1  -4  164.41    7.42
   1   1   4  168.57    4.72
  -1  -1   4  171.04    4.83
   1   1   4  172.62    5.38
   1  -1  -4  162.69    5.29
   1  -1  -4  168.86    7.41
   1   1  -5   88.16    6.87
  -1   1   5   98.44    5.02
  -1   1   5  100.80    4.33
   1  -1   5   91.17    6.07
   1  -1   5   96.88    4.68
  -1  -1  -5   96.92    6.99
  -1   1   5   92.64    6.08
  -1  -1  -5   96.69    4.71
  -1  -1  -5   93.00    5.19
   1  -1   5   99.33    5.41
  -1  -1   5   96.81    5.97
   1  -1  -5   95.10    4.60
   1   1   5   97.00    5.23
   1  -1  -5   93.58    6.95
   1  -1  -5   98.50    5.00
   1   1   5   92.35    4.38
  -1   1  -5   94.14    7.02
  -1  -1   5   98.90    5.19
   1   1   5   91.04    6.11
  -1  -1   5   99.58    4.54
   1  -1   6   60.23    6.75
  -1  -1  -6   54.38    7.30
  -1  -1  -6   62.36    5.45
   1  -1   6   63.33    6.02
  -1   1   6   63.56    5.67
   1  -1   6   61.90    5.03
  -1   1   6   67.88    4.74
   1   1  -6   52.71    7.19
  -1   1   6   58.09    6.64
   1  -1  -6   67.73    5.19
  -1  -1   6   63.02    4.78
  -1  -1   6   60.47    5.59
   1  -1  -6   56.90    7.28
  -1  -1   6   57.51    6.54
   1   1   6   59.11    4.66
  -1   1  -6   61.36    7.50
   1   1   6   62.06    6.77
   1   1   6   62.11    5.82
  -1   1   7   30.79    4.24
  -1   1   7   23.29    5.14
   1  -1   7   30.81    5.53
  -1  -1  -7   34.14    7.14
   1  -1   7   28.96    6.14
   1  -1   7   28.36    4.46
  -1   1   7   26.12    6.13
   1   1  -7   34.93    7.14
  -1  -1  -7   32.60    4.59
  -1  -1   7   32.44    6.02
   1   1   7   25.57    5.93
   1   1   7   23.90    4.07
   1  -1  -7   35.38    4.42
   1   1   7   24.57    5.11
  -1   1  -7   34.90    7.08
   1  -1  -7   37.64    7.24
  -1  -1   7   30.14    4.55
  -1  -1   7   27.67    5.18
   1  -1   8   19.91    5.66
  -1   1   8   22.59    5.54
   1  -1   8   27.99    7.19
   1   1  -8   27.97    7.33
  -1   1   8   28.40    7.34
  -1  -1  -8   29.79    7.52
  -1  -1  -8   34.99    4.96
  -1   1   8   22.75    4.49
   1  -1   8   18.08    4.67
  -1  -1   8   23.58    6.98
   1   1   8   24.25    7.32
   1  -1  -8   31.54    4.43
  -1  -1   8   18.57    5.80
  -1  -1   8   32.09    5.03
  -1   1  -8   26.94    7.39
   1   1   8   24.07    5.92
   1   1   8   21.36    4.43
   1  -1  -8   30.11    7.65
   1  -1  -8   32.46    4.13
   1  -1   9    4.48    4.62
  -1   1   9   12.36    5.41
  -1  -1  -9   17.10    7.41
   1  -1   9    4.22    7.33
  -1   1   9    4.67    5.66
  -1   1   9    1.77    7.59
   1   1  -9   15.92    7.56
   1  -1   9   -1.05    5.87
  -1  -1   9   -0.17    5.71
   1  -1  -9   17.40    7.67
  -1  -1   9    7.81    4.80
  -1  -1   9    6.11    7.26
   1   1   9   12.78    4.59
   1   1   9   -3.64    7.50
   1   1   9   -8.60    5.69
  -1   1  -9   19.30    7.70
  -2   1   0  153.25    3.19
  -2  -1   0  137.72    2.78
  -2   1   0  140.74    2.80
   2  -1   0  152.78    2.60
  -2  -1   0  142.94    3.03
   2  -1   0  152.93    2.66
   2   1   0  156.11    2.65
   2   1   0  143.30    2.78
   2   1   0  146.92    3.06
  -2  -1   0  152.60    2.62
  -2   1   0  147.09    2.59
   2  -1   0  142.90    3.04
   2   1   0  149.01    2.72
  -2   1   0  141.67    2.60
   2  -1   0  141.37    2.81
  -2   1   1   91.08    2.38
   2  -1   1   95.21    2.68
   2   1  -1   90.55    3.06
   2  -1   1   99.45    2.37
  -2  -1  -1   93.91    2.71
  -2   1   1   93.90    2.49
  -2   1   1   93.37    3.01
   2  -1   1   95.86    2.55
  -2  -1  -1   95.99    2.35
  -2  -1  -1   96.86    2.55
   2   1  -1   93.42    2.31
  -2   1   1   95.17    2.04
  -2  -1  -1   94.73    2.24
  -2   1   1   93.18    2.24
   2  -1   1  100.73    3.09
  -2   1   1   93.03    2.39
  -2  -1  -1   95.84    2.13
   2  -1   1   94.77    2.36
   2   1  -1   97.63    2.74
  -2   1   1   93.76    3.12
  -2  -1   1   97.41    2.60
  -2   1  -1   94.44    3.08
   2  -1  -1   96.69    2.05
  -2   1  -1   94.77    2.49
   2   1   1   96.56    2.16
  -2   1  -1   92.71    2.43
  -2   1  -1   88.05    2.53
   2  -1  -1   91.35    2.48
   2   1   1   95.16    2.85
   2  -1  -1   95.89    3.08
  -2  -1   1   91.83    3.01
   2  -1  -1   94.70    2.27
  -2  -1   1   93.85    2.22
   2   1   1   94.15    2.38
   2   1   1   97.31    2.16
  -2  -1   1   97.96    2.14
   2  -1  -1   95.76    2.43
  -2   1   2   86.60    2.44
   2  -1   2   87.62    3.18
   2  -1   2   84.98    3.43
   2  -1   2   89.80    3.76
   2   1  -2   84.23    4.40
  -2  -1  -2   85.31    4.07
  -2  -1  -2   88.72    2.89
   2  -1   2   83.48    2.94
   2  -1   2   91.00    3.00
  -2  -1  -2   86.66    3.66
  -2   1   2   85.54    3.49
   2   1  -2   87.40    3.70
  -2  -1  -2   86.03    3.30
  -2   1  -2   86.16    4.44
  -2  -1   2   91.70    2.82
   2  -1  -2   90.70    4.39
   2  -1  -2   89.91    2.51
  -2  -1   2   94.57    3.78
   2  -1  -2   90.97    3.12
   2   1   2   97.92    2.87
   2   1   2   96.24    3.95
  -2   1  -2   90.82    3.41
   2  -1  -2   90.51    2.86
  -2  -1   2   89.68    3.16
  -2   1  -2   88.57    3.05
   2   1   2   94.83    3.34
  -2  -1  -3   44.12    3.25
  -2  -1  -3   47.95    2.95
   2  -1   3   49.49    3.17
   2  -1   3   48.33    3.59
   2   1  -3   49.68    3.47
  -2  -1  -3   49.18    3.97
  -2   1   3   51.01    2.75
   2   1  -3   49.76    4.18
  -2   1   3   53.99    2.30
  -2   1   3   50.13    3.48
   2  -1   3   51.30    2.78
  -2  -1  -3   45.57    2.45
   2  -1  -3   50.22    4.18
  -2  -1   3   51.76    3.51
   2  -1  -3   51.09    2.82
   2   1   3   49.42    3.69
  -2  -1   3   51.01    2.52
   2   1   3   50.09    2.55
  -2  -1   3   50.79    2.93
  -2   1  -3   51.75    3.14
  -2   1  -3   49.63    4.14
   2   1   3   51.97    3.07
   2  -1  -3   49.90    2.52
  -2   1  -3   48.89    2.73
   2  -1   4   38.05    3.73
  -2   1   4   42.36    3.26
  -2   1   4   37.37    4.04
   2  -1   4   37.59    4.26
   2  -1   4   36.19    3.23
  -2  -1  -4   37.38    3.37
  -2   1   4   37.57    2.73
  -2  -1  -4   33.23    4.61
  -2  -1  -4   32.20    3.76
   2   1  -4   31.33    4.69
  -2  -1   4   34.04    3.87
  -2  -1   4   37.07    3.51
   2   1   4   31.51    4.13
   2  -1  -4   36.36    2.89
   2   1   4   33.33    2.91
  -2   1  -4   36.95    3.56
   2  -1  -4   28.55    3.11
   2  -1  -4   31.60    4.67
  -2  -1   4   33.35    2.90
   2   1   4   31.45    3.61
  -2   1  -4   37.27    4.76
  -2   1   5   20.07    2.85
  -2  -1  -5   16.91    3.56
   2  -1   5   15.33    3.08
  -2   1   5   14.80    3.85
  -2  -1  -5   17.81    3.24
   2  -1   5   15.47    3.90
   2   1  -5   15.48    4.57
   2  -1   5   19.76    3.74
  -2   1   5   21.83    3.48
  -2  -1  -5   20.37    4.80
  -2   1  -5   17.11    3.30
  -2   1  -5   20.88    4.97
   2  -1  -5   16.58    2.80
   2   1   5   18.14    2.93
   2  -1  -5   15.93    3.06
  -2  -1   5   19.86    3.50
   2   1   5   18.98    3.59
  -2  -1   5   18.48    2.84
   2  -1  -5   18.88    4.73
   2   1   5   17.56    4.00
  -2  -1   5   16.58    3.90
   2  -1   6   13.35    4.49
  -2   1   6   15.55    3.31
  -2  -1  -6   12.33    4.12
  -2   1   6   13.40    4.12
   2  -1   6   11.38    4.64
  -2  -1  -6   12.96    3.60
  -2  -1  -6   15.76    5.57
   2  -1   6   10.51    3.65
   2   1  -6   10.21    5.31
  -2   1   6    9.84    4.70
  -2  -1   6   10.13    4.49
  -2  -1   6    9.13    3.36
   2  -1  -6    6.81    5.20
   2   1   6   13.66    3.50
   2  -1  -6   11.99    3.45
   2   1   6   11.93    4.31
  -2  -1   6   20.18    4.38
   2   1   6   14.49    4.78
  -2   1  -6   11.24    5.44
  -2  -1  -7   16.09    6.09
  -2   1   7   16.14    5.83
  -2  -1  -7   19.62    3.92
   2  -1   7    7.34    4.77
  -2   1   7   10.83    4.56
   2   1  -7   11.77    5.95
  -2   1   7   12.78    3.79
   2  -1   7   10.91    5.47
   2  -1   7   16.13    4.08
  -2  -1  -7   13.45    4.22
  -2   1  -7   17.74    6.10
  -2  -1   7   10.23    3.58
   2   1   7   11.30    3.73
  -2  -1   7   16.73    5.49
  -2   1  -7   14.36    3.85
   2   1   7    9.53    5.34
  -2  -1   7   16.90    4.73
   2   1   7    9.83    4.66
   2  -1  -7   14.14    3.33
   2  -1  -7    8.99    5.66
  -2  -1  -8    6.01    3.44
   2   1  -8    1.40    6.09
  -2  -1  -8   14.80    4.00
   2  -1   8    2.53    6.24
  -2   1   8   -4.42    5.83
  -2  -1  -8    5.64    6.13
  -2   1   8   -7.75    4.65
   2  -1   8    0.31    4.08
  -2   1   8    0.38    3.79
   2  -1   8   -8.90    5.06
  -2  -1   8   -1.15    5.68
   2  -1  -8    7.45    3.31
   2   1   8    1.84    3.96
  -2   1  -8   10.09    6.15
   2   1   8   -4.97    6.05
  -2  -1   8   -3.27    3.88
   2   1   8   -9.47    4.71
  -2  -1   8   -2.19    5.15
   2  -1  -8    8.35    3.51
   2  -1  -8    9.18    6.55
  -2   1   9  -10.42    5.20
   2  -1   9   -4.21    4.43
  -2   1   9  -12.31    6.65
   2  -1   9  -14.48    5.51
  -2  -1  -9    1.60    6.21
   2   1  -9    0.71    6.17
   2  -1   9  -14.71    6.79
  -2   1  -9   -2.52    6.12
   2  -1  -9    2.88    6.51
  -2  -1   9   -6.31    4.28
  -2  -1   9  -12.75    5.26
   2   1   9  -13.46    5.41
  -2  -1   9   -8.26    6.45
   2   1   9   -6.97    4.00
   3   1   0  201.01    3.58
  -3   1   0  195.94    3.91
   3  -1   0  196.22    3.63
  -3  -1   0  182.31    3.82
   3   1   0  190.37    4.17
   3   1   0  191.45    3.68
  -3   1   0  190.24    3.48
   3  -1   0  200.55    3.55
  -3  -1   0  191.77    4.13
  -3   1   0  178.57    3.52
  -3   1   1  133.06    3.12
   3  -1   1  143.74    3.34
   3   1  -1  145.65    3.12
  -3   1   1  140.81    4.25
  -3   1   1  140.58    4.06
   3  -1   1  141.71    4.18
  -3   1   1  141.75    2.77
  -3   1   1  137.44    2.86
  -3  -1  -1  134.53    3.83
   3  -1   1  139.14    3.74
  -3   1   1  135.53    3.30
   3   1  -1  140.16    3.24
  -3  -1  -1  140.26    3.08
  -3  -1  -1  135.33    3.87
  -3  -1  -1  135.54    3.35
   3   1  -1  141.93    3.80
   3  -1   1  142.15    3.65
  -3   1   1  137.83    2.86
  -3  -1  -1  142.05    3.61
   3  -1   1  138.57    3.40
   3   1   1  135.43    3.41
   3   1   1  140.61    4.00
  -3  -1   1  139.57    2.98
  -3   1  -1  140.85    3.67
   3  -1  -1  138.73    3.39
  -3  -1   1  132.33    3.49
  -3   1  -1  135.71    4.14
  -3  -1   1  131.05    3.04
  -3   1  -1  131.94    3.40
  -3   1  -1  130.35    3.55
   3  -1  -1  144.16    2.85
   3  -1  -1  140.62    4.13
   3   1   1  140.26    3.11
  -3  -1  -2   25.30    2.17
  -3   1   2   25.62    2.59
  -3  -1  -2   23.48    2.89
   3  -1   2   28.42    2.88
  -3   1   2   30.52    1.81
   3  -1   2   28.63    2.65
  -3  -1  -2   28.73    3.04
   3   1  -2   26.50    2.71
   3   1  -2   27.70    2.22
   3   1  -2   27.84    3.24
   3  -1   2   26.82    2.28
  -3  -1  -2   28.58    2.64
   3  -1  -2   28.69    3.15
   3  -1  -2   26.21    2.11
  -3  -1   2   27.52    2.37
  -3   1  -2   28.02    2.42
   3   1   2   34.68    3.17
   3   1   2   32.80    2.63
  -3  -1   2   30.95    2.71
   3  -1  -2   28.32    1.91
   3  -1  -2   28.44    2.59
  -3   1  -2   26.43    3.26
   3   1   2   29.80    2.13
  -3   1  -2   30.62    2.81
   3   1   2   26.72    3.32
  -3   1   3   53.74    2.33
  -3  -1  -3   50.92    2.62
  -3  -1  -3   50.15    3.97
   3  -1   3   49.95    3.68
  -3   1   3   50.24    2.76
   3  -1   3   51.86    3.26
  -3  -1  -3   51.09    3.52
  -3  -1  -3   53.35    3.10
   3   1  -3   50.57    3.56
   3  -1   3   55.60    2.85
   3   1  -3   52.27    4.25
  -3   1   3   50.94    3.46
  -3  -1   3   56.49    2.60
   3  -1  -3   56.15    4.27
  -3  -1   3   54.63    3.69
  -3   1  -3   54.30    3.43
   3  -1  -3   53.90    2.51
  -3   1  -3   54.95    4.26
  -3  -1   3   58.42    3.03
   3   1   3   58.83    2.72
   3  -1  -3   55.67    2.84
   3   1   3   54.92    3.81
   3   1   3   56.07    3.20
  -3   1  -3   50.85    3.01
  -3  -1  -4   50.80    3.74
  -3  -1  -4   51.68    4.22
   3  -1   4   51.42    4.57
  -3  -1  -4   51.87    3.12
   3  -1   4   53.72    3.50
  -3   1   4   46.95    4.37
  -3   1   4   52.12    2.94
  -3   1   4   52.78    3.56
   3   1  -4   46.85    5.09
  -3  -1  -4   52.17    5.02
   3   1  -4   50.91    4.25
   3  -1   4   49.74    3.93
  -3   1  -4   54.08    5.14
   3   1   4   48.88    4.60
  -3  -1   4   50.00    3.65
  -3   1  -4   51.02    4.05
   3   1   4   49.30    3.87
   3   1   4   46.02    3.23
  -3  -1   4   53.74    3.15
   3  -1  -4   46.53    5.11
   3  -1  -4   47.36    3.32
  -3  -1   4   49.48    4.18
  -3   1   5   56.13    4.38
   3   1  -5   50.15    6.26
  -3  -1  -5   54.04    5.13
   3  -1   5   52.23    5.67
  -3   1   5   56.37    3.68
  -3  -1  -5   51.75    4.57
   3  -1   5   55.31    4.28
   3  -1   5   49.50    4.87
  -3   1   5   54.19    5.43
  -3  -1  -5   54.19    6.10
   3   1   5   60.53    4.04
  -3  -1   5   54.50    4.70
   3  -1  -5   51.66    4.11
  -3   1  -5   53.48    4.82
   3  -1  -5   52.75    6.20
   3   1   5   69.66    5.01
  -3  -1   5   49.48    5.32
  -3   1  -5   56.31    6.36
   3   1   5   59.44    5.76
  -3  -1   5   57.65    3.90
  -3  -1  -6   13.65    3.72
  -3   1   6    9.30    4.13
   3  -1   6    8.27    4.24
  -3   1   6   14.78    4.97
   3   1  -6   13.66    5.78
  -3  -1  -6   13.75    5.58
  -3   1   6   11.44    3.35
   3  -1   6    6.24    4.74
  -3  -1  -6    3.13    4.13
   3  -1   6    7.33    3.63
   3  -1  -6    7.06    2.99
   3   1   6    9.82    3.46
  -3   1  -6    7.91    5.28
  -3   1  -6    8.34    3.91
  -3  -1   6    9.24    4.25
   3  -1  -6    7.70    5.21
   3   1   6    9.45    4.81
  -3  -1   6   12.69    3.33
   3   1   6    7.17    4.31
  -3  -1   6   11.21    4.60
   3  -1   7   45.33    5.10
  -3  -1  -7   40.54    7.33
  -3   1   7   48.90    4.68
   3  -1   7   44.29    7.10
  -3  -1  -7   53.76    5.85
  -3  -1  -7   48.58    4.78
  -3   1   7   52.28    5.72
   3  -1   7   51.32    6.04
   3   1  -7   47.09    7.81
  -3   1   7   48.77    6.97
   3   1   7   46.96    4.88
   3  -1  -7   53.39    4.60
   3   1   7   54.55    6.00
   3  -1  -7   51.62    7.77
  -3   1  -7   53.95    5.32
  -3  -1   7   49.04    5.89
   3  -1  -7   54.30    4.46
   3   1   7   53.33    7.33
  -3  -1   7   47.99    4.89
  -3  -1   7   49.64    6.83
  -3   1  -7   53.60    7.69
  -3   1   8   14.56    6.74
  -3  -1  -8   15.54    6.69
   3   1  -8   19.24    7.23
   3  -1   8   14.40    4.71
   3  -1   8    7.98    5.44
  -3   1   8   10.57    5.27
  -3  -1  -8   19.87    4.27
   3  -1   8   11.19    6.66
  -3  -1  -8   24.16    4.83
  -3   1   8   13.39    4.19
  -3  -1   8   14.87    6.66
   3   1   8   20.11    5.84
   3   1   8    1.45    6.41
  -3  -1   8   15.22    4.43
  -3   1  -8   21.99    4.39
   3  -1  -8   27.51    4.14
   3   1   8   13.12    4.31
   3  -1  -8   22.40    3.84
  -3   1  -8   19.27    6.93
   3  -1  -8   15.96    6.94
  -3  -1   8   14.77    5.41
   3   1  -9    8.79    7.12
  -3   1   9   -0.82    5.52
   3  -1   9    2.57    4.57
  -3  -1  -9   13.62    5.01
  -3   1   9   -3.93    6.96
  -3  -1  -9   10.07    6.86
   3  -1   9  -14.85    7.17
   3  -1   9   -9.02    5.62
  -3  -1   9   -3.66    5.70
  -3   1  -9    5.09    6.58
   3   1   9    2.12    6.08
   3  -1  -9    8.65    7.06
  -3  -1   9    4.28    7.29
   3   1   9  -12.09    7.22
   3   1   9    5.59    4.38
  -3  -1   9   -0.40    4.58
  -4   1   0   87.99    3.03
  -4  -1   0   80.93    3.26
   4  -1   0   92.40    2.61
   4   1   0   82.67    2.73
   4   1   0   90.41    2.60
   4   1   0   83.94    3.44
   4  -1   0   82.11    2.74
  -4   1   0   79.89    2.56
  -4  -1   0   87.60    3.09
   4   1   0   88.58    2.90
  -4   1   0   85.42    2.42
  -4   1   1  102.02    3.86
   4  -1   1  104.33    3.48
  -4   1   1   93.64    2.56
   4  -1   1  102.49    3.06
  -4   1   1   97.04    2.46
   4  -1   1  104.44    3.56
  -4   1   1  101.90    3.22
  -4  -1  -1  105.73    3.85
   4   1  -1  102.80    2.83
  -4   1   1   98.48    3.65
  -4  -1  -1  102.93    3.51
   4   1  -1  100.38    3.01
   4   1  -1   99.90    3.54
  -4   1  -1  109.60    3.64
   4  -1  -1  105.94    3.25
  -4   1  -1  101.87    3.39
  -4  -1   1  107.74    3.02
  -4  -1   1   96.85    2.72
   4   1   1  108.21    3.00
   4  -1  -1  105.92    2.90
   4  -1  -1  111.94    2.73
   4  -1  -1  106.05    3.80
   4   1   1  106.22    3.42
   4   1   1  104.54    4.01
   4  -1   2   81.94    3.43
   4   1  -2   81.04    3.57
  -4  -1  -2   83.60    3.77
   4  -1   2   84.73    3.81
   4   1  -2   83.08    4.23
   4   1  -2   84.26    2.99
  -4  -1  -2   82.95    2.95
  -4  -1  -2   85.25    3.47
   4  -1   2   91.78    3.09
  -4   1   2   85.61    3.44
   4  -1  -2   81.21    3.40
   4  -1  -2   82.50    4.18
   4  -1  -2   83.49    3.00
  -4   1  -2   85.89    3.63
   4   1   2   87.20    2.93
  -4   1  -2   82.21    3.28
   4  -1  -2   84.82    2.48
  -4   1  -2   82.99    4.17
   4  -1  -2   84.14    2.75
   4   1   2   86.81    4.02
   4   1   2   85.01    3.36
  -4  -1  -3  170.21    5.58
  -4  -1  -3  171.61    6.24
   4  -1   3  168.74    5.21
   4  -1   3  176.70    5.98
   4   1  -3  174.32    6.70
   4   1  -3  171.99    5.73
  -4  -1  -3  172.87    4.45
  -4   1   3  171.88    5.61
   4  -1   3  180.02    4.79
  -4   1   3  180.87    4.64
  -4  -1  -3  173.84    5.15
  -4  -1   3  175.60    4.82
  -4   1  -3  172.23    5.33
  -4   1  -3  173.42    6.48
   4   1   3  177.98    4.54
   4  -1  -3  173.51    4.63
   4  -1  -3  171.85    5.52
   4   1   3  180.53    5.08
  -4  -1   3  169.49    5.70
   4  -1  -3  163.84    4.27
   4   1   3  173.53    6.08
  -4   1  -3  169.06    4.87
   4  -1  -3  174.27    6.66
   4  -1   4  105.71    4.89
  -4   1   4  118.38    3.90
   4   1  -4  107.37    5.40
   4  -1   4  116.03    4.45
  -4  -1  -4  115.53    4.09
  -4   1   4  116.11    5.49
  -4  -1  -4  115.87    6.27
  -4  -1  -4  113.01    5.39
  -4   1   4  120.54    4.47
   4  -1   4  113.18    5.79
   4   1  -4  112.22    6.53
  -4  -1  -4  114.09    4.85
  -4  -1   4  117.96    4.66
   4  -1  -4  110.72    6.52
  -4   1  -4  118.48    5.25
  -4  -1   4  119.10    5.65
  -4   1  -4  117.86    6.50
  -4   1  -4  114.18    4.74
   4   1   4  109.55    5.88
   4   1   4  115.95    4.29
  -4  -1   4  121.12    4.17
   4   1   4  116.70    4.96
   4  -1  -4  112.09    4.33
   4  -1   5   42.29    5.75
  -4   1   5   42.73    4.46
   4   1  -5   33.82    6.12
   4  -1   5   40.31    4.34
  -4   1   5   43.12    3.54
   4  -1   5   36.41    4.13
  -4  -1  -5   38.78    4.26
  -4  -1  -5   44.30    4.87
  -4   1   5   47.39    5.50
  -4  -1  -5   41.07    5.91
  -4  -1   5   42.55    5.21
  -4   1  -5   36.91    4.98
  -4   1  -5   36.42    4.32
   4   1   5   38.47    3.89
   4   1   5   46.62    4.98
   4  -1  -5   36.11    6.09
   4  -1  -5   36.09    3.81
   4   1   5   36.71    5.58
  -4  -1   5   45.08    3.76
  -4  -1   5   43.24    4.58
  -4   1  -5   40.89    6.19
  -4   1   6   26.78    5.59
  -4  -1  -6   33.87    5.16
  -4  -1  -6   29.21    4.45
   4  -1   6   30.27    4.30
   4  -1   6   28.32    5.85
   4   1  -6   32.52    6.85
   4  -1   6   31.62    5.04
  -4   1   6   34.63    4.72
  -4   1   6   29.33    3.74
  -4  -1  -6   28.13    6.29
  -4  -1   6   29.70    3.90
  -4   1  -6   33.81    6.62
   4  -1  -6   30.99    3.92
   4   1   6   27.02    3.95
  -4   1  -6   32.32    4.92
   4   1   6   34.61    5.19
   4  -1  -6   23.82    6.37
  -4  -1   6   35.14    4.83
   4   1   6   26.78    5.67
  -4   1  -6   30.49    4.37
  -4  -1   6   28.04    5.45
  -4  -1  -7   12.10    3.80
   4  -1   7    3.10    4.56
  -4  -1  -7   15.58    4.49
  -4  -1  -7   13.86    6.02
  -4   1   7   10.08    4.41
  -4   1   7   12.95    5.61
   4   1  -7   13.12    6.16
  -4   1   7   11.53    3.41
   4  -1   7    5.81    5.44
   4  -1   7   17.32    4.14
   4   1   7   12.79    4.84
  -4  -1   7   17.27    5.46
  -4  -1   7   10.28    3.54
   4  -1  -7   12.16    3.03
  -4   1  -7   13.49    5.98
   4  -1  -7   12.40    3.30
  -4  -1   7    9.55    4.63
   4   1   7    6.35    5.47
  -4   1  -7   14.55    4.18
   4   1   7    9.30    3.64
   4  -1  -7   16.41    6.37
  -4  -1  -8    9.89    4.15
  -4   1   8    4.12    4.75
  -4  -1  -8    5.11    6.12
  -4   1   8    0.87    6.21
   4  -1   8   -5.02    6.37
   4   1  -8    6.78    6.47
  -4  -1  -8    4.28    4.39
  -4   1   8    2.41    3.81
   4  -1   8   -3.02    5.16
   4  -1   8   -1.63    4.07
  -4  -1   8    7.51    5.23
  -4   1  -8   10.96    4.28
   4   1   8   -2.59    6.33
   4  -1  -8    7.43    6.31
  -4   1  -8    9.77    6.35
   4   1   8    8.24    4.13
   4  -1  -8    5.18    3.35
   4   1   8   -3.90    4.97
  -4  -1   8   -1.10    3.55
  -4  -1   8    7.21    6.27
   4  -1   9  -12.62    5.47
  -4  -1  -9    2.87    3.79
  -4  -1  -9    9.08    4.44
   4   1  -9    1.33    6.63
  -4  -1  -9    2.10    6.24
   4  -1   9   -5.53    4.38
  -4   1   9   -8.77    6.83
  -4   1  -9    1.66    6.36
   4  -1  -9    2.01    6.75
   4   1   9   -1.05    4.05
   4   1   9  -10.74    5.29
   4   1   9  -15.55    7.35
  -4  -1   9   -8.10    5.24
  -4  -1   9   -8.31    6.33
  -4  -1   9  -12.48    4.05
  -5  -1   0   36.61    2.72
   5  -1   0   34.08    2.35
  -5   1   0   37.60    2.58
   5  -1   0   34.71    2.06
   5   1   0   32.27    2.50
   5   1   0   37.12    2.11
   5   1   0   34.23    2.94
   5   1  -1   60.14    2.62
   5   1  -1   56.16    2.99
  -5   1   1   58.73    2.78
   5  -1   1   61.64    2.64
   5   1  -1   63.73    2.37
  -5   1   1   59.04    3.11
   5  -1   1   59.77    2.99
   5  -1   1   59.71    3.06
  -5  -1  -1   59.89    3.33
  -5  -1  -1   58.25    3.00
   5   1   1   55.66    2.85
   5  -1  -1   59.38    2.20
  -5   1  -1   57.56    3.17
   5   1   1   58.73    3.48
   5  -1  -1   55.54    2.42
   5  -1  -1   57.87    2.69
  -5  -1   1   58.31    2.61
   5   1   1   60.55    2.52
   5  -1   2    8.49    2.24
  -5   1   2    8.43    2.41
   5  -1   2    9.74    2.09
  -5  -1  -2    9.68    1.82
  -5  -1  -2    7.93    2.23
   5   1  -2    8.11    2.36
   5  -1   2    7.12    1.70
  -5  -1  -2    8.50    2.04
   5   1  -2    8.94    1.99
   5   1  -2    9.72    1.50
   5   1  -2    8.83    1.73
   5  -1  -2   10.29    2.36
   5  -1  -2    8.63    1.38
   5  -1  -2   11.08    1.62
   5   1   2   10.91    2.05
   5  -1  -2    9.69    1.92
   5   1   2    9.11    2.33
  -5   1  -2    9.48    2.26
   5   1   2    8.04    1.69
  -5   1  -2    7.71    2.26
  -5   1  -2    7.79    1.95
   5  -1  -2    8.76    1.63
  -5  -1  -3   64.77    3.88
  -5  -1  -3   67.14    3.23
  -5   1   3   73.07    4.19
   5   1  -3   66.15    4.04
   5  -1   3   70.59    3.40
  -5   1   3   71.18    3.20
  -5  -1  -3   67.71    4.40
   5  -1   3   70.74    3.90
   5  -1   3   69.12    4.50
   5   1  -3   67.70    4.88
  -5  -1  -3   62.67    4.41
   5   1  -3   68.91    3.42
   5  -1  -3   67.90    4.80
  -5  -1   3   65.16    4.02
   5   1   3   70.67    4.67
  -5   1  -3   69.18    3.05
   5   1   3   70.14    3.25
  -5  -1   3   69.33    3.47
   5  -1  -3   70.52    3.27
   5  -1  -3   68.28    4.03
  -5   1  -3   67.23    4.70
   5   1   3   71.03    3.90
   5  -1  -3   69.77    3.21
  -5   1  -3   69.17    3.77
  -5   1  -3   69.72    4.20
  -5   1   4   22.87    2.92
  -5  -1  -4   16.79    3.49
   5   1  -4   18.65    3.45
   5  -1   4   20.27    3.66
  -5  -1  -4   20.04    3.19
   5   1  -4   19.21    4.28
  -5  -1  -4   19.62    4.01
  -5   1   4   21.71    2.28
  -5   1   4   23.63    3.55
  -5  -1  -4   21.36    2.87
   5  -1   4   18.72    3.24
   5  -1   4   20.35    2.83
  -5  -1   4   22.38    2.52
  -5  -1   4   23.36    3.07
  -5   1  -4   22.50    3.20
   5  -1  -4   21.73    2.95
   5   1   4   22.74    2.79
  -5   1  -4   21.35    4.14
   5  -1  -4   21.65    3.54
  -5   1  -4   22.61    3.61
   5  -1  -4   21.34    4.17
   5   1   4   18.07    3.88
  -5  -1   4   20.62    3.54
   5   1   4   21.45    3.18
  -5   1   5    7.09    2.59
  -5   1   5   12.24    3.34
   5  -1   5    4.31    3.52
  -5  -1  -5    7.28    3.99
  -5   1   5    8.45    3.93
  -5  -1  -5    3.91    3.43
  -5  -1  -5   12.38    4.57
   5   1  -5    3.31    4.60
  -5  -1  -5    7.26    2.96
   5  -1   5   12.72    3.28
   5   1  -5    7.15    3.70
   5  -1   5    7.57    4.29
  -5  -1   5    5.83    3.53
   5  -1  -5   10.29    2.69
  -5   1  -5    9.54    3.91
  -5  -1   5   10.22    3.44
  -5   1  -5    6.45    3.42
   5  -1  -5    5.79    4.52
  -5  -1   5   10.11    2.76
   5   1   5    8.27    4.31
   5   1   5    7.09    2.97
  -5   1  -5   10.56    4.70
   5   1   5   12.19    3.67
  -5   1   6   24.15    3.56
   5  -1   6   20.30    5.73
  -5   1   6   28.48    5.77
  -5  -1  -6   21.20    5.18
  -5   1   6   24.55    4.48
   5   1  -6   25.74    6.69
   5  -1   6   16.37    4.08
  -5  -1  -6   19.43    4.46
   5  -1   6   18.25    4.82
  -5  -1  -6   21.22    5.87
  -5  -1   6   17.56    3.63
  -5  -1   6   24.87    4.69
   5   1   6   24.26    4.06
  -5   1  -6   24.58    4.96
   5   1   6   23.89    5.78
   5  -1  -6   20.90    6.26
  -5   1  -6   19.83    4.28
  -5   1  -6   22.04    6.28
   5   1   6   21.37    4.81
  -5  -1   6   19.79    5.10
  -5  -1  -7    8.49    3.76
  -5   1   7    6.02    4.25
  -5  -1  -7   10.22    4.60
   5   1  -7   11.63    6.17
   5  -1   7    6.05    4.72
   5  -1   7    7.57    5.81
  -5   1   7    4.02    5.22
   5  -1   7   14.19    4.05
  -5  -1  -7    6.47    5.42
  -5   1   7    6.64    3.26
  -5  -1   7    4.11    3.24
   5  -1  -7   10.02    5.98
  -5   1  -7    7.27    5.65
   5  -1  -7   10.78    3.04
   5   1   7   10.13    3.73
  -5  -1   7   10.53    4.39
  -5  -1   7    7.52    5.16
   5  -1  -7   10.17    3.16
  -5   1  -7    9.02    4.43
   5   1   7    3.65    5.56
   5   1   7    7.37    4.65
  -5   1   8    3.86    3.73
  -5  -1  -8   10.97    6.39
   5  -1   8   -0.09    6.70
  -5  -1  -8   13.08    4.21
   5  -1   8    7.67    4.18
  -5   1   8   10.16    6.62
  -5   1   8    6.54    4.96
  -5  -1  -8   23.28    5.02
   5  -1   8   10.82    5.66
   5   1  -8    6.37    6.59
  -5  -1   8    6.85    5.25
  -5   1  -8   20.33    4.78
   5   1   8    3.70    6.72
  -5  -1   8    9.52    3.85
  -5  -1   8   10.25    6.15
   5  -1  -8    8.37    6.64
   5   1   8   13.22    5.25
  -5   1  -8   18.70    6.71
   5   1   8    9.77    3.91
   6   1   0  200.03    4.72
  -6  -1   0  190.39    5.03
  -6   1   0  190.14    5.02
   6  -1   0  199.30    4.37
   6   1   0  206.07    4.47
   6  -1   0  195.88    4.58
   6   1   0  194.02    5.37
   6  -1   1  151.17    4.31
  -6  -1  -1  152.31    4.41
   6   1  -1  151.57    4.07
  -6   1   1  151.87    4.29
   6   1  -1  147.04    4.53
   6  -1   1  146.99    4.51
  -6  -1  -1  154.67    4.83
   6  -1   1  156.35    3.95
   6   1  -1  149.62    3.76
   6  -1  -1  153.84    3.91
   6  -1  -1  150.38    4.21
   6   1   1  159.36    3.94
   6   1   1  146.84    4.90
  -6  -1   1  150.18    4.11
   6   1   1  152.73    4.26
   6  -1  -1  154.23    3.70
  -6   1  -1  157.65    4.72
   6  -1  -1  148.28    4.23
   6   1  -2  146.73    3.92
  -6   1   2  149.23    5.54
   6  -1   2  146.88    4.17
   6  -1   2  152.23    4.67
   6   1  -2  149.78    4.97
   6   1  -2  149.76    4.25
  -6  -1  -2  148.06    5.17
  -6  -1  -2  146.68    4.73
  -6   1   2  157.57    4.44
   6  -1   2  148.67    5.10
   6   1  -2  147.36    5.37
   6   1   2  149.76    4.50
  -6   1  -2  146.62    4.54
   6  -1  -2  146.25    3.93
   6  -1  -2  148.05    3.69
   6  -1  -2  149.17    4.33
   6   1   2  142.02    5.21
   6   1   2  153.48    4.09
   6  -1  -2  141.95    4.55
  -6   1  -2  145.23    4.93
   6  -1  -2  144.43    5.33
  -6  -1  -3  302.73    6.64
   6  -1   3  310.59    6.96
  -6  -1  -3  304.46    8.06
  -6   1   3  315.63    7.99
   6  -1   3  299.32    8.23
   6  -1   3  297.17    7.39
   6   1  -3  301.03    6.99
   6   1  -3  309.51    8.12
  -6   1   3  299.80    9.17
   6   1  -3  308.66    9.20
  -6  -1  -3  294.10    7.49
  -6   1  -3  299.70    7.30
   6  -1  -3  308.45    9.17
   6  -1  -3  306.95    6.75
   6  -1  -3  306.83    7.94
  -6   1  -3  304.31    7.89
   6  -1  -3  306.74    6.97
   6   1   3  295.10    8.37
   6   1   3  310.32    7.39
  -6  -1   3  305.13    8.04
  -6   1  -3  306.60    8.84
   6   1   3  307.43    6.74
  -6   1   4  176.11    5.57
   6   1  -4  169.01    7.98
  -6  -1  -4  172.47    7.38
   6  -1   4  160.73    5.44
  -6  -1  -4  165.71    5.21
  -6  -1  -4  166.39    6.83
   6   1  -4  171.68    6.86
   6  -1   4  176.88    7.34
  -6   1   4  172.95    6.74
  -6  -1  -4  165.76    6.19
   6  -1   4  160.41    6.10
   6  -1  -4  168.09    7.83
  -6   1  -4  168.17    7.51
   6  -1  -4  167.16    5.34
  -6   1  -4  160.92    4.93
  -6  -1   4  175.35    6.94
   6   1   4  169.72    7.28
   6   1   4  168.40    5.32
  -6   1  -4  166.04    6.56
   6  -1  -4  178.10    6.78
   6   1   4  163.35    6.09
  -6  -1   4  169.02    5.70
  -6   1  -4  166.99    5.98
  -6   1   5   58.85    5.82
  -6   1   5   63.19    3.98
  -6  -1  -5   56.55    4.34
   6  -1   5   62.43    6.70
   6  -1   5   63.91    4.78
  -6  -1  -5   58.26    5.22
  -6  -1  -5   61.61    6.25
   6   1  -5   57.08    5.91
   6   1  -5   60.11    7.07
   6  -1   5   61.09    5.51
  -6   1   5   65.41    4.82
  -6  -1  -5   53.08    6.33
  -6  -1   5   62.55    5.93
   6   1   5   57.53    5.45
   6   1   5   65.73    6.79
  -6  -1   5   57.90    4.99
   6   1   5   58.88    4.52
   6  -1  -5   62.51    4.33
  -6   1  -5   58.43    6.09
   6  -1  -5   59.97    6.82
  -6  -1   5   58.66    4.22
  -6   1  -5   59.30    5.20
  -6   1  -5   56.16    6.64
  -6  -1  -6   32.87    4.24
  -6  -1  -6   32.39    4.94
   6   1  -6   38.91    7.26
   6  -1   6   38.40    4.64
  -6   1   6   33.38    3.83
  -6   1   6   35.18    4.83
   6  -1   6   34.66    6.41
  -6   1   6   33.94    6.07
  -6  -1  -6   38.46    6.58
   6  -1   6   38.48    5.31
  -6  -1  -6   39.00    5.79
   6  -1  -6   40.24    7.07
   6   1   6   32.91    5.16
  -6   1  -6   38.71    5.60
  -6   1  -6   34.79    4.69
   6  -1  -6   32.12    3.85
  -6   1  -6   38.53    7.00
  -6  -1   6   36.40    5.88
  -6  -1   6   40.09    4.35
   6   1   6   36.63    4.37
  -6  -1   6   35.69    4.94
   6   1   6   28.80    6.19
   6   1  -7   18.34    6.61
  -6   1   7   12.74    4.36
   6  -1   7   16.71    4.11
   6  -1   7    6.75    6.11
  -6  -1  -7   15.81    5.02
  -6  -1  -7   18.22    6.18
  -6   1   7   14.06    3.48
  -6  -1  -7   11.89    4.11
  -6   1   7   14.84    5.85
   6  -1   7   12.06    4.80
   6  -1  -7   16.99    6.38
   6   1   7   11.62    3.83
  -6   1  -7   17.67    6.22
  -6  -1   7   12.18    3.58
   6  -1  -7   15.25    3.19
  -6  -1   7    9.97    5.56
  -6  -1   7   14.85    4.65
   6   1   7   12.43    4.78
   6   1   7    5.12    5.94
  -6   1  -7   24.56    5.04
  -6   1  -7   11.06    3.92
   6  -1  -7   16.96    3.45
  -6   1   8    3.32    6.27
  -6  -1  -8    1.97    3.59
   6   1  -8   -1.27    6.28
  -6  -1  -8    0.90    5.62
   6  -1   8    2.05    4.07
  -6   1   8   -4.74    3.31
  -6  -1  -8    4.07    4.67
   6  -1   8   -8.12    4.78
  -6   1   8   -3.13    4.49
   6  -1   8   -4.69    6.66
   6   1   8   -2.67    4.78
   6  -1  -8    2.33    6.33
  -6  -1   8   -0.51    3.48
  -6  -1   8   -3.52    5.71
  -6   1  -8    5.98    5.65
  -6  -1   8   -6.27    4.64
   6   1   8   -4.99    6.60
  -6   1  -8    8.58    3.82
   6   1   8    5.76    3.90
  -6   1  -8    6.45    4.42
   7   1   0   31.57    2.22
   7  -1   0   28.89    2.17
   7   1   0   26.63    3.10
   7   1   0   31.12    2.51
  -7   1   0   28.42    2.85
   7  -1   0   28.10    2.44
  -7  -1   0   26.45    2.88
   7  -1   1   13.49    1.82
   7   1  -1   15.82    2.09
  -7   1   1   12.42    2.09
  -7  -1  -1   14.22    2.49
   7   1  -1   15.83    2.42
   7  -1   1   14.60    2.29
   7   1  -1   14.53    1.72
   7  -1   1   13.63    2.36
  -7   1  -1   13.76    2.34
   7   1   1   15.99    2.73
   7   1   1   12.23    1.84
   7  -1  -1   15.04    1.94
   7  -1  -1   14.13    1.72
   7  -1  -1   15.29    2.04
   7   1   1   15.37    2.21
  -7  -1   1   12.82    2.03
  -7  -1  -2   37.70    3.91
   7   1  -2   36.04    2.80
   7   1  -2   38.43    3.40
  -7  -1  -2   38.80    3.49
   7  -1   2   36.91    3.48
   7  -1   2   36.59    3.76
   7  -1   2   35.88    3.01
  -7   1   2   38.39    3.73
   7   1  -2   35.76    2.51
  -7   1   2   38.05    3.11
  -7  -1   2   37.65    2.91
   7   1   2   39.50    2.77
   7  -1  -2   40.98    3.74
   7  -1  -2   34.98    2.32
   7  -1  -2   38.56    2.74
   7   1   2   40.11    4.00
   7  -1  -2   32.74    3.09
  -7   1  -2   41.65    3.85
   7   1   2   41.45    3.37
   7  -1  -2   38.92    3.06
   7   1  -3   10.61    2.32
  -7   1   3   11.88    2.74
   7  -1   3   10.41    3.17
  -7  -1  -3    9.11    2.91
   7   1  -3    9.21    2.80
   7  -1   3    9.78    2.70
  -7  -1  -3   10.47    3.16
   7  -1   3    8.81    2.42
  -7   1   3   10.40    2.44
   7   1  -3    9.67    3.33
  -7  -1  -3    8.27    2.53
  -7   1   3    9.58    3.42
  -7   1  -3    9.69    3.14
  -7   1  -3   11.42    3.22
   7  -1  -3    6.37    2.66
   7  -1  -3   12.18    2.28
   7   1   3    7.97    2.70
   7   1   3   10.04    2.36
   7  -1  -3    9.60    2.25
  -7   1  -3   12.18    2.85
   7   1   3   10.12    3.45
   7  -1  -3   12.44    3.37
  -7  -1  -4   13.58    3.95
   7   1  -4   14.44    4.58
  -7  -1  -4   12.65    3.49
   7   1  -4   15.72    3.86
  -7   1   4   15.93    3.03
   7   1  -4   14.43    3.16
  -7  -1  -4   14.19    3.00
  -7   1   4   14.55    3.57
   7  -1   4   17.66    4.25
   7  -1   4   11.16    3.25
   7  -1   4   10.99    2.89
  -7   1  -4   16.01    3.15
   7  -1  -4   15.91    4.42
   7  -1  -4   12.60    3.56
   7   1   4   15.83    4.22
  -7   1  -4   17.49    3.59
  -7  -1   4   14.33    3.68
  -7   1  -4   11.03    3.91
  -7  -1   4   10.78    3.04
   7   1   4   11.33    3.43
   7   1   4   12.17    2.81
  -7   1  -4   12.86    4.09
   7  -1  -4   13.16    2.74
  -7   1   5    4.45    3.41
   7  -1   5    5.10    3.40
  -7   1   5    9.31    4.10
   7   1  -5    2.63    4.98
   7  -1   5    4.20    4.68
  -7  -1  -5    1.84    4.45
  -7   1   5    7.75    2.73
  -7  -1  -5    5.33    4.36
   7  -1   5    8.41    3.88
  -7  -1  -5    8.48    3.39
   7   1  -5    4.82    4.13
  -7  -1  -5    5.31    3.94
   7   1   5    3.53    3.84
   7   1   5    9.04    4.93
  -7   1  -5    3.34    3.64
  -7  -1   5    3.35    2.73
   7   1   5    4.65    3.23
   7  -1  -5    1.50    4.04
  -7  -1   5    5.97    4.06
  -7   1  -5    3.93    4.46
  -7   1  -5    7.20    4.67
  -7  -1   5    4.76    3.53
   7  -1  -5    5.71    4.84
  -7   1  -5    6.20    3.17
   7  -1  -5    4.93    2.79
  -7   1   6    3.94    4.78
  -7   1   6    4.79    3.79
  -7   1   6    2.86    2.89
  -7  -1  -6    9.37    5.15
  -7  -1  -6    4.43    4.02
   7  -1   6    6.26    3.63
  -7  -1  -6    0.48    3.28
   7  -1   6    0.65    4.05
  -7  -1  -6    0.53    4.75
   7   1  -6    5.05    5.50
   7  -1   6    3.48    5.52
   7   1   6    7.26    4.38
   7   1   6    2.00    3.31
  -7   1  -6    4.08    3.90
   7  -1  -6    4.02    2.96
   7  -1  -6    4.40    5.39
  -7   1  -6    1.98    5.09
   7   1   6    3.45    5.25
  -7  -1   6    1.67    2.94
  -7  -1   6    4.04    3.80
  -7  -1   6    6.22    4.72
  -7   1  -6    8.79    4.87
  -7  -1  -7    5.74    5.27
  -7   1   7   -1.84    4.11
   7  -1   7   -2.65    4.25
   7  -1   7   -7.12    5.65
  -7  -1  -7    6.79    4.19
   7   1  -7    5.79    5.90
   7  -1   7    3.62    3.81
  -7  -1  -7    5.82    4.77
  -7   1   7    1.21    3.10
  -7   1   7    1.62    5.23
  -7  -1   7    1.73    5.13
  -7   1  -7    4.64    4.72
  -7  -1   7    4.75    4.46
   7   1   7    7.63    4.59
   7  -1  -7    3.47    5.93
   7   1   7    0.22    5.87
  -7   1  -7    4.63    5.39
  -7  -1   7    2.92    3.24
  -7   1  -7    3.18    3.94
   7   1   7    1.51    3.51
  -7  -1  -8   -0.01    5.59
  -7  -1  -8    4.89    4.80
  -7   1   8    0.59    3.48
  -7  -1  -8    7.54    3.90
   7  -1   8  -10.16    6.47
   7  -1   8   -8.59    4.66
  -7   1   8    1.52    6.20
   7   1  -8   -2.49    6.16
  -7   1   8   -0.98    4.75
   7  -1   8    1.34    3.91
   7   1   8    2.10    3.80
   7  -1  -8    0.35    6.24
   7   1   8   -4.94    6.58
  -7   1  -8   10.66    4.97
   7   1   8    1.20    4.83
  -7   1  -8    5.09    3.83
  -7   1  -8    3.76    5.67
  -7  -1   8   -1.09    3.47
  -7  -1   8   -0.45    4.63
  -7  -1   8    0.05    5.98
   8  -1   0  204.67    4.90
   8   1   0  195.73    5.21
   8  -1   0  206.28    5.17
  -8   1   0  202.99    5.69
  -8  -1   0  204.93    5.77
   8   1   0  198.36    6.07
   8   1   0  203.01    4.97
   8  -1   1  182.77    4.85
  -8  -1  -1  184.82    5.92
  -8   1   1  186.84    5.46
   8  -1   1  174.43    5.15
   8  -1   1  182.63    5.78
   8   1  -1  182.66    5.71
   8   1  -1  182.68    4.68
   8   1  -1  189.39    5.07
  -8  -1   1  184.82    5.23
  -8   1  -1  174.47    5.63
   8   1   1  182.02    4.75
   8   1   1  179.89    6.25
   8   1   1  179.94    5.15
   8  -1  -1  180.20    4.54
   8  -1  -1  176.91    4.81
  -8   1   2  238.45    7.32
   8  -1   2  237.85    6.37
   8  -1   2  237.67    6.98
  -8   1   2  248.15    6.28
   8  -1   2  233.64    5.85
   8   1  -2  236.78    6.85
  -8  -1  -2  237.42    7.11
   8   1  -2  230.63    5.60
  -8  -1  -2  243.40    6.64
   8   1  -2  241.45    6.03
  -8  -1   2  255.82    6.30
   8   1   2  248.46    6.52
   8  -1  -2  250.84    5.72
   8  -1  -2  246.85    6.39
  -8   1  -2  247.61    7.15
   8   1   2  250.30    6.02
   8  -1  -2  256.39    6.80
   8  -1  -2  252.11    7.41
   8  -1  -2  257.34    6.00
   8   1   2  244.75    7.52
   8   1  -3  164.48    5.40
  -8  -1  -3  156.33    6.07
   8   1  -3  168.26    6.37
   8  -1   3  155.12    5.80
  -8  -1  -3  166.69    6.67
  -8   1   3  164.15    7.10
  -8  -1  -3  158.78    5.04
   8  -1   3  161.86    6.75
  -8   1   3  167.86    5.57
   8   1  -3  168.39    7.03
  -8   1   3  169.47    6.04
   8  -1   3  161.74    5.33
   8   1  -3  163.31    5.05
   8   1   3  163.24    5.10
   8   1   3  151.96    5.64
   8  -1  -3  167.97    5.19
  -8  -1   3  164.21    5.09
  -8   1  -3  161.03    6.54
   8  -1  -3  169.69    5.42
  -8   1  -3  157.42    5.86
   8  -1  -3  165.92    6.13
   8   1   3  160.71    6.93
   8  -1  -3  170.38    4.73
   8  -1  -3  162.88    6.95
   8  -1   4   68.70    4.56
  -8   1   4   74.87    4.78
  -8  -1  -4   69.12    4.33
   8   1  -4   67.33    5.63
   8   1  -4   63.49    6.43
  -8   1   4   77.78    4.46
   8   1  -4   72.48    4.90
  -8   1   4   74.01    5.62
  -8  -1  -4   72.03    5.63
  -8  -1  -4   69.88    6.22
   8  -1   4   65.58    5.32
   8  -1   4   78.72    6.57
  -8   1   4   69.01    6.56
  -8  -1   4   72.47    4.70
  -8  -1   4   74.16    5.65
  -8   1  -4   68.29    5.99
  -8   1  -4   74.54    5.51
   8  -1  -4   71.06    4.50
  -8   1  -4   67.22    6.18
   8  -1  -4   75.46    6.50
   8   1   4   67.30    5.31
   8   1   4   77.73    6.70
   8  -1  -4   70.42    4.63
   8  -1  -4   70.44    5.60
   8   1   4   73.19    4.54
  -8   1  -4   76.90    4.40
   8   1  -5   50.33    6.33
  -8   1   5   56.54    5.03
  -8  -1  -5   44.56    4.68
   8  -1   5   45.13    4.82
  -8  -1  -5   51.06    5.86
  -8  -1  -5   53.27    6.27
   8   1  -5   47.63    7.18
  -8   1   5   52.64    6.06
  -8   1   5   52.88    7.15
  -8  -1  -5   53.12    6.99
   8  -1   5   54.30    7.24
   8  -1   5   52.08    5.82
   8   1   5   47.57    5.67
  -8   1  -5   56.58    5.72
   8   1   5   53.73    7.22
  -8   1  -5   52.54    6.38
   8  -1  -5   56.71    4.58
  -8   1  -5   47.78    4.50
  -8  -1   5   55.03    6.34
   8  -1  -5   49.98    6.27
   8  -1  -5   54.76    7.12
  -8   1  -5   55.61    6.73
  -8  -1   5   59.36    5.29
   8   1   5   50.33    4.69
  -8   1   6   33.65    5.81
   8   1  -6   27.51    5.78
  -8  -1  -6   31.09    5.92
  -8  -1  -6   20.45    3.89
  -8  -1  -6   34.53    5.94
  -8   1   6   24.58    3.57
   8  -1   6   23.95    4.21
  -8   1   6   28.07    6.38
   8   1  -6   28.57    6.79
  -8   1   6   30.25    4.46
   8  -1   6   23.95    6.09
  -8  -1  -6   25.97    4.76
   8  -1   6   25.51    4.68
  -8  -1   6   30.31    5.63
  -8   1  -6   26.74    5.59
  -8   1  -6   24.76    4.69
   8  -1  -6   25.83    6.56
   8   1   6   29.01    4.12
  -8  -1   6   26.56    3.71
   8   1   6   32.52    5.06
   8   1   6   26.93    6.22
  -8  -1   6   27.47    4.61
  -8   1  -6   32.11    6.27
  -8   1   7   18.91    6.26
   8  -1   7   12.05    4.94
  -8   1   7    9.36    4.54
  -8   1   7    8.59    3.35
   8  -1   7   11.05    4.11
  -8   1   7   16.17    6.25
  -8  -1  -7   11.44    5.74
  -8  -1  -7   20.83    5.77
  -8  -1  -7   15.45    3.87
   8   1  -7   18.14    6.89
  -8  -1  -7   14.66    4.55
   8  -1   7   12.03    6.47
  -8   1  -7   18.64    5.56
   8   1   7   10.93    4.92
  -8  -1   7   11.68    3.63
   8   1   7   13.68    4.03
  -8   1  -7   20.83    6.30
  -8   1  -7   15.99    4.37
  -8  -1   7   13.71    5.80
   8  -1  -7    8.75    6.22
   8   1   7    7.60    6.45
  -8  -1   7   10.70    4.67
  -8  -1  -8   10.68    4.31
   8  -1   8    8.85    5.24
  -8  -1  -8    3.10    5.71
  -8   1   8    4.15    6.24
  -8   1   8   -2.16    4.58
  -8   1   8   15.77    6.49
   8   1  -8    6.05    6.51
   8  -1   8   -2.73    7.02
  -8  -1  -8   14.13    5.46
   8  -1   8    4.70    4.11
  -8  -1   8    7.35    3.76
   8   1   8   -3.25    6.78
  -8   1  -8    9.63    6.00
  -8  -1   8    1.87    4.80
   8   1   8    7.92    4.11
   8   1   8    2.75    4.93
  -8  -1   8    6.01    6.45
  -8   1  -8    7.94    4.05
  -8   1  -8   16.69    5.23
   8  -1  -8    9.84    6.83
   9  -1   0   30.54    3.66
   9  -1   0   30.70    2.75
   9   1   0   29.04    3.98
   9   1   0   29.89    2.64
  -9  -1   0   29.52    3.60
   9  -1   0   30.72    3.15
   9   1   0   28.93    3.17
  -9   1   0   27.13    3.48
  -9   1   1   33.03    3.47
  -9  -1  -1   31.21    3.98
   9   1  -1   26.00    3.07
   9  -1   1   33.14    4.21
   9   1  -1   34.47    3.74
   9   1  -1   33.18    2.68
   9  -1   1   33.07    3.41
   9  -1   1   34.37    2.90
   9  -1  -1   28.69    2.64
   9  -1  -1   34.99    3.09
   9   1   1   29.54    2.78
  -9   1  -1   33.28    3.72
   9   1   1   29.07    3.31
  -9  -1   1   25.20    2.99
   9   1   1   33.04    4.56
   9   1  -2   16.80    3.24
   9  -1   2   19.79    3.55
   9  -1   2   17.33    2.97
  -9  -1  -2   15.89    3.40
   9  -1   2   14.61    2.49
   9   1  -2   14.19    2.70
  -9   1   2   16.59    2.75
  -9  -1  -2   16.78    3.15
   9   1  -2   18.53    2.38
   9   1   2   19.73    2.66
   9  -1  -2   16.35    2.58
   9   1   2   15.92    3.69
  -9  -1   2   19.31    2.73
   9   1   2   14.63    2.78
   9  -1  -2   17.17    3.13
  -9   1  -2   16.45    3.28
   9  -1  -2   17.45    2.41
   9  -1  -2   16.46    2.60
   9  -1   3   11.82    2.97
  -9  -1  -3   12.31    3.48
   9   1  -3   10.88    3.06
   9  -1   3   15.96    3.99
   9   1  -3   12.11    3.52
   9  -1   3   11.28    3.31
  -9  -1  -3   11.09    3.77
   9   1  -3   10.08    3.85
   9   1  -3   11.23    2.63
  -9   1   3   13.07    3.85
  -9  -1  -3   10.37    2.90
  -9   1   3   16.60    3.10
   9  -1  -3   12.69    3.37
   9   1   3   12.01    4.04
   9   1   3    8.35    3.18
   9   1   3    8.10    2.65
  -9  -1   3   12.84    2.88
   9  -1  -3   11.60    2.95
   9  -1  -3   11.66    3.84
   9  -1  -3    9.65    2.52
  -9   1  -3   14.41    3.82
   9  -1  -3   14.48    2.94
  -9   1  -3   10.37    3.32
  -9  -1  -4   11.75    3.45
  -9  -1  -4   11.90    4.72
   9   1  -4   10.99    4.07
   9   1  -4   12.14    3.70
  -9   1   4   11.62    4.72
  -9   1   4   12.51    3.34
  -9   1   4   12.78    3.99
   9  -1   4    7.57    4.66
  -9   1   4    6.79    3.22
   9  -1   4   10.34    3.66
   9  -1   4   11.08    3.18
   9   1  -4    8.92    4.71
  -9  -1  -4    9.55    4.18
  -9  -1   4    7.41    3.82
   9   1   4   10.14    3.77
  -9   1  -4   10.45    4.46
   9  -1  -4    8.05    4.05
  -9  -1   4    4.62    3.34
   9  -1  -4   11.50    3.16
   9   1   4   12.11    4.89
   9  -1  -4    8.87    4.58
   9   1   4    9.32    3.12
  -9   1  -4    9.58    4.07
  -9   1  -4    4.83    3.15
   9  -1  -4   10.83    3.51
  -9  -1  -5    3.53    3.53
  -9  -1  -5    3.65    4.32
  -9  -1  -5    4.21    4.31
   9  -1   5    1.06    5.27
   9   1  -5    0.86    4.52
  -9   1   5    8.34    3.85
  -9   1   5    4.05    3.49
   9  -1   5    5.74    4.26
  -9  -1  -5    5.54    5.18
  -9   1   5    0.37    5.18
   9   1  -5    2.54    5.29
   9  -1   5    0.06    3.46
  -9   1   5    4.61    4.50
  -9   1  -5    2.10    4.54
   9  -1  -5    5.72    4.63
  -9   1  -5    1.15    4.62
   9  -1  -5   -2.02    4.94
  -9   1  -5    6.53    3.49
  -9  -1   5    3.92    3.88
   9   1   5    1.27    4.14
  -9  -1   5    1.78    4.50
   9   1   5    1.04    3.44
   9   1   5   -0.25    5.21
   9  -1  -5    1.63    3.23
  -9   1  -5    7.33    5.18
   9  -1   6    5.27    5.56
  -9   1   6    3.63    2.89
  -9   1   6    6.17    4.66
  -9   1   6    3.85    3.75
   9   1  -6   -0.92    4.75
   9   1  -6    3.74    5.24
  -9  -1  -6    6.72    4.20
  -9  -1  -6    3.25    3.45
   9  -1   6    0.61    3.97
  -9  -1  -6    4.79    4.99
  -9  -1  -6    1.20    4.36
  -9   1   6    1.58    5.11
   9  -1   6    0.69    3.31
  -9  -1   6    9.53    4.94
   9   1   6    5.81    3.32
   9  -1  -6    2.32    5.41
  -9   1  -6    5.64    5.08
  -9  -1   6    9.26    4.00
  -9   1  -6    4.66    4.76
   9   1   6    0.93    3.97
  -9  -1   6    3.79    2.92
   9   1   6    1.10    5.41
  -9   1  -6    7.93    3.52
  -9   1  -6    3.42    4.12
   9  -1  -6    2.09    3.16
   9   1  -7    5.51    6.11
  -9  -1  -7   10.30    4.65
  -9   1   7    3.76    4.18
  -9   1   7    5.57    5.56
   9  -1   7   -3.34    6.17
   9  -1   7   -4.13    4.47
  -9  -1  -7   15.34    5.79
  -9  -1  -7    9.06    3.80
  -9   1   7    7.47    5.78
   9  -1   7    5.30    3.90
  -9   1   7    6.21    3.15
  -9  -1  -7    1.62    4.93
  -9   1  -7    4.51    4.03
   9   1   7    1.55    3.67
  -9   1  -7    9.56    5.39
  -9  -1   7    4.45    5.30
  -9  -1   7   -1.01    4.28
   9  -1  -7    5.16    6.10
  -9  -1   7    4.73    3.26
   9   1   7    4.75    6.27
   9   1   7    4.66    4.67
  -9   1  -7    5.68    5.62
   9   1  -8   -2.29    6.28
  -9  -1  -8    0.89    5.45
   9  -1   8   -3.81    4.86
  -9   1   8   -2.54    4.44
  -9  -1  -8   15.01    5.65
  -9   1   8   -2.25    5.83
  -9   1   8    8.90    5.95
  -9  -1  -8    3.10    4.11
   9  -1   8    2.86    4.10
   9  -1   8   -6.51    6.87
  -9  -1   8   -2.40    6.18
  -9   1  -8    1.96    3.93
  -9  -1   8    0.81    3.53
   9   1   8    1.28    3.88
  -9  -1   8   -4.28    4.59
   9   1   8   -1.19    4.90
  -9   1  -8    2.51    5.74
   9   1   8   -4.41    6.55
   9  -1  -8    1.50    6.36
  -9   1  -8    9.12    5.31
  10   1   0  130.18    4.94
  10  -1   0  136.48    5.00
 -10   1   0  133.29    5.48
  10   1   0  140.55    5.95
  10  -1   0  126.28    4.45
 -10  -1   0  131.85    5.45
  10   1   0  124.56    4.42
  10  -1   1  104.74    4.23
  10  -1   1  104.82    4.75
  10  -1   1  113.83    5.78
  10   1  -1  110.76    5.39
 -10   1   1  108.69    5.04
  10   1  -1  107.28    4.61
 -10  -1  -1  106.11    5.49
  10   1  -1  102.71    4.11
 -10  -1   1  107.26    5.00
  10   1   1  107.55    4.17
  10   1   1  120.29    6.19
  10  -1  -1  110.51    4.97
  10  -1  -1  111.88    4.08
  10  -1  -1  114.19    4.52
  10   1   1  102.85    4.66
 -10   1  -1  107.80    5.27
  10   1  -2  112.61    4.85
 -10  -1  -2  112.17    6.08
  10  -1   2  103.68    4.53
 -10   1   2  115.45    5.28
 -10  -1  -2  109.18    5.55
  10  -1   2  115.99    5.33
  10   1  -2  108.94    4.35
  10   1  -2  115.29    5.77
  10  -1   2  112.37    6.08
 -10  -1   2  117.79    5.14
  10   1   2  114.78    6.49
 -10   1  -2  108.44    5.91
  10  -1  -2  110.99    4.68
  10  -1  -2  114.91    5.47
  10   1   2  110.25    4.56
  10   1   2  109.54    5.11
  10  -1  -2  108.24    4.30
  10   1  -3   54.43    5.28
 -10  -1  -3   47.98    5.91
  10  -1   3   50.46    4.09
 -10  -1  -3   54.53    5.27
  10   1  -3   49.45    3.88
  10  -1   3   51.52    6.02
  10  -1   3   49.65    4.89
 -10   1   3   47.31    5.55
  10   1  -3   51.77    4.55
 -10   1   3   61.71    4.65
  10  -1  -3   51.77    5.04
 -10  -1   3   49.69    5.35
  10  -1  -3   51.34    3.70
 -10  -1   3   55.16    4.46
  10   1   3   51.53    4.82
  10   1   3   52.13    6.40
  10  -1  -3   53.45    4.47
 -10   1  -3   51.28    5.85
  10   1   3   46.91    3.98
  10  -1  -3   54.82    5.52
  10  -1  -3   52.50    4.35
 -10   1  -3   50.35    5.31
  10  -1   4   32.72    5.67
 -10   1   4   28.06    5.65
 -10   1   4   26.49    4.01
  10  -1   4   24.84    3.84
  10   1  -4   30.72    5.76
  10   1  -4   33.69    4.50
 -10  -1  -4   33.20    5.56
 -10  -1  -4   22.55    4.04
 -10  -1  -4   27.32    5.08
  10  -1   4   26.00    4.53
 -10   1   4   32.80    4.81
  10   1  -4   30.62    5.04
  10  -1  -4   32.66    5.78
  10   1   4   27.57    3.74
 -10   1  -4   30.88    5.04
  10   1   4   27.37    4.41
  10  -1  -4   33.41    4.25
 -10  -1   4   29.04    4.88
 -10   1  -4   23.85    3.85
  10  -1  -4   28.04    3.92
  10   1   4   29.35    5.67
 -10   1  -4   26.56    5.51
  10  -1  -4   31.77    5.01
 -10   1   5   19.90    5.02
 -10   1   5   35.49    4.44
  10   1  -5   26.56    5.57
  10  -1   5   21.22    3.91
  10   1  -5   27.66    6.21
 -10   1   5   26.78    4.21
  10  -1   5   20.55    4.53
 -10  -1  -5   22.30    4.00
 -10  -1  -5   23.73    5.10
 -10   1   5   28.32    6.13
 -10  -1  -5   25.15    6.18
  10  -1   5   25.80    6.02
  10  -1  -5   22.02    3.85
  10   1   5   31.74    6.28
  10   1   5   23.98    3.92
  10  -1  -5   22.38    5.96
 -10   1  -5   29.54    5.41
  10   1   5   20.74    4.50
 -10   1  -5   25.47    5.83
  10  -1  -5   28.98    5.49
 -10  -1   5   29.48    4.47
 -10  -1   5   29.12    5.45
 -10   1  -5   21.81    3.97
  10  -1   6    9.39    3.63
 -10  -1  -6   19.49    4.02
 -10   1   6   17.80    4.08
 -10   1   6   13.00    5.65
 -10  -1  -6   15.75    6.04
  10  -1   6   10.00    4.57
 -10   1   6   15.30    5.20
  10   1  -6   13.31    5.41
  10   1  -6   10.79    5.91
 -10  -1  -6   11.85    4.78
 -10   1   6   11.16    4.14
  10  -1   6    6.31    5.92
 -10  -1  -6   12.83    4.82
 -10   1   6   11.70    3.08
 -10  -1   6   10.75    4.15
 -10   1  -6   16.00    4.84
  10   1   6    8.03    5.85
  10  -1  -6   11.05    3.60
  10  -1  -6   12.20    5.92
 -10  -1   6   16.27    3.38
  10   1   6   15.97    4.49
  10   1   6   10.83    3.67
 -10   1  -6   10.77    3.67
 -10   1  -6   17.51    5.79
 -10   1  -6   12.78    5.26
 -10  -1   6   12.75    5.45
 -10   1   7    6.75    5.81
  10  -1   7    0.56    6.36
 -10  -1  -7   11.62    3.89
  10  -1   7    7.39    4.00
 -10   1   7    6.01    5.71
 -10  -1  -7    9.97    4.72
 -10   1   7    8.20    4.26
 -10  -1  -7   10.98    5.97
 -10   1   7    6.83    3.21
  10   1  -7    2.82    6.26
 -10  -1  -7    4.16    5.67
  10  -1   7   12.12    5.24
  10   1   7   -0.21    6.56
 -10   1  -7    8.12    5.56
 -10  -1   7    8.92    3.38
 -10   1  -7   13.95    5.85
  10  -1  -7    8.11    6.12
 -10  -1   7    9.84    5.82
  10   1   7    4.86    4.82
  10   1   7    7.57    3.87
 -10  -1   7    6.65    4.32
 -10   1  -7    7.68    4.40
 -10   1   8    4.48    6.16
  10   1  -8    4.37    6.79
  10  -1   8   -1.15    5.20
 -10  -1  -8    8.63    5.79
 -10   1   8    2.24    6.19
  10  -1   8   -3.52    6.90
 -10   1   8   -6.67    5.35
  10  -1   8   10.05    4.46
 -10  -1  -8   10.86    4.00
 -10  -1  -8    9.75    4.84
 -10  -1   8    3.49    6.41
  10   1   8   -8.72    6.67
 -10   1  -8    9.09    6.84
  10  -1  -8    3.41    6.66
  10   1   8    1.09    3.97
 -10   1  -8    4.28    4.41
 -10  -1   8    1.97    5.14
 -10   1  -8   18.44    5.95
 -10  -1   8    4.06    3.74
  10   1   8    7.23    5.23
  11   1   0    7.43    2.56
 -11  -1   0    5.91    3.25
  11   1   0    3.89    2.98
 -11   1   0    8.78    3.21
  11  -1   0    4.77    2.97
  11   1   0    7.49    3.63
  11  -1   0    4.68    2.57
  11  -1   1    9.63    2.76
  11  -1   1    7.98    3.03
  11  -1   1   12.64    4.08
  11   1  -1   10.21    3.67
  11   1  -1   10.29    3.09
 -11   1   1    7.55    3.22
 -11  -1  -1   14.49    3.79
  11   1  -1    9.91    2.66
 -11   1  -1    7.62    3.33
  11   1   1    8.07    4.34
  11  -1  -1    9.62    3.35
  11   1   1    7.24    2.64
  11  -1  -1   10.52    2.69
  11   1   1    6.38    3.01
 -11  -1   1   11.54    3.40
  11  -1  -1    9.61    2.95
  11   1  -2   11.80    2.93
  11   1  -2    9.29    3.85
 -11  -1  -2    8.20    3.95
  11  -1   2   10.76    3.00
  11  -1   2   12.66    4.26
  11   1  -2   13.39    3.24
  11  -1   2   12.04    3.38
 -11   1   2   14.95    3.62
 -11  -1  -2   12.47    3.78
 -11  -1   2   13.02    3.43
  11   1   2   10.72    3.34
  11  -1  -2   12.13    2.79
  11   1   2   13.62    4.58
  11  -1  -2   11.39    3.10
  11   1   2    8.62    2.82
 -11   1  -2   15.46    3.90
  11  -1   3    5.42    4.50
  11   1  -3    4.30    3.53
 -11   1   3    7.74    3.44
  11   1  -3   11.74    4.13
  11  -1   3    6.61    3.63
 -11  -1  -3    8.68    4.77
 -11  -1  -3    3.21    4.06
  11  -1   3    5.75    2.99
  11   1  -3    3.80    3.00
  11   1   3    5.23    4.68
  11  -1  -3   10.57    3.96
 -11   1  -3    5.48    4.45
  11  -1  -3    5.05    2.95
  11   1   3    7.14    3.07
 -11  -1   3    7.41    3.43
  11  -1  -3    6.95    3.32
  11  -1  -3    9.63    3.48
 -11   1  -3    5.62    4.16
  11   1   3    8.24    3.53
  11  -1  -3    7.07    4.04
 -11  -1  -4   13.74    5.25
  11  -1   4    4.38    3.20
  11  -1   4    9.22    5.44
 -11   1   4    9.49    3.72
  11   1  -4    9.64    5.03
  11   1  -4   10.24    4.22
  11   1  -4    6.79    4.69
 -11  -1  -4   12.39    3.89
 -11   1   4    9.30    4.37
 -11   1   4    9.42    4.94
  11  -1   4    4.82    3.89
 -11  -1  -4    9.64    5.50
  11   1   4    3.26    3.17
 -11  -1   4   11.63    3.75
  11  -1  -4   12.69    4.10
  11  -1  -4    8.07    4.46
  11   1   4    5.14    3.87
  11  -1  -4   12.08    5.02
  11   1   4   12.72    5.53
 -11   1  -4    6.56    5.19
 -11   1  -4   12.85    4.86
 -11  -1   4    7.30    4.74
  11  -1  -4    7.02    3.64
  11   1  -5   20.60    5.77
 -11   1   5   23.08    5.79
 -11   1   5   24.97    4.11
 -11   1   5   26.91    4.05
  11  -1   5   19.96    4.49
  11   1  -5   27.23    4.64
 -11   1   5   25.47    5.08
 -11  -1  -5   14.15    3.74
  11  -1   5   18.85    5.84
  11  -1   5   17.62    3.79
 -11  -1  -5   29.79    6.26
 -11  -1  -5   20.47    5.78
  11   1  -5   27.19    5.56
 -11   1  -5   31.31    6.06
 -11   1  -5   19.84    3.87
 -11  -1   5   24.24    5.55
 -11   1  -5   32.56    5.61
  11   1   5   24.18    4.34
  11  -1  -5   28.21    5.27
  11   1   5   22.86    3.75
  11  -1  -5   18.51    4.25
  11   1   5   24.47    6.04
  11  -1  -5   21.29    5.74
 -11  -1   5   20.56    4.07
  11  -1  -5   23.92    3.98
 -11  -1   5   27.72    5.38
 -11   1   6    6.74    5.69
  11  -1   6   11.23    3.95
 -11   1   6    7.21    5.11
  11  -1   6    3.66    4.42
 -11  -1  -6    6.88    4.87
  11   1  -6    4.11    5.73
 -11   1   6    9.61    3.98
 -11   1   6    0.86    3.80
 -11  -1  -6   13.18    6.18
  11  -1   6   -1.93    5.77
 -11  -1  -6    5.14    3.84
  11   1  -6    8.93    5.31
  11   1   6    9.81    3.58
  11  -1  -6    6.99    3.63
 -11  -1   6    9.25    5.24
 -11  -1   6   10.97    4.32
 -11   1  -6    4.67    4.45
 -11  -1   6   12.67    3.23
 -11  -1   6   10.67    5.60
  11  -1  -6   12.73    5.62
  11   1   6    6.55    6.19
 -11   1  -6    7.43    3.77
  11   1   6    8.50    4.49
 -11   1  -6    9.17    5.10
  11  -1  -6    6.24    5.77
 -11   1  -6   10.39    5.89
  11  -1   7    2.41    4.75
 -11   1   7    0.19    4.06
  11   1  -7    4.16    6.23
  11  -1   7   -4.77    6.37
 -11  -1  -7   10.26    4.83
  11  -1   7    2.40    3.81
 -11   1   7    5.27    5.79
 -11   1   7    4.04    3.18
 -11   1   7    5.09    5.49
 -11  -1  -7    7.44    6.02
 -11  -1  -7    3.43    3.91
  11  -1  -7   -4.40    5.74
  11   1   7   -3.99    6.56
  11   1   7    3.04    3.77
 -11  -1   7    6.73    5.40
 -11  -1   7    2.51    3.32
 -11  -1   7    4.51    4.22
 -11   1  -7    5.58    5.81
 -11   1  -7    7.91    3.99
  11   1   7    5.29    4.72
 -11  -1   7   -1.64    5.54
 -11   1  -7    6.25    4.54
  12  -1   0   59.43    5.27
  12   1   0   56.60    5.74
  12   1   0   54.54    4.10
 -12  -1   0   55.56    5.49
  12   1   0   56.37    4.78
  12  -1   0   54.83    4.10
  12  -1   0   62.09    4.83
 -12   1   0   54.09    5.29
  12   1  -1   35.27    3.85
  12   1  -1   35.92    5.28
 -12   1   1   44.13    5.02
 -12  -1  -1   33.80    4.63
  12  -1   1   30.75    3.67
  12   1  -1   33.16    4.01
  12  -1   1   40.33    4.76
  12   1   1   36.83    4.00
  12  -1  -1   34.20    3.95
 -12  -1   1   44.93    5.14
  12  -1  -1   35.00    3.75
  12   1   1   35.24    4.07
 -12   1  -1   39.78    5.23
  12   1   1   39.39    6.02
 -12  -1  -2   30.09    4.94
 -12  -1  -2   26.92    4.49
  12   1  -2   35.67    4.91
  12  -1   2   23.12    4.13
 -12   1   2   28.98    4.28
  12  -1   2   21.98    3.52
  12   1  -2   27.93    4.04
  12  -1   2   28.70    5.15
  12   1  -2   29.86    3.67
  12   1   2   25.28    3.43
  12  -1  -2   28.71    3.45
  12  -1  -2   30.19    3.86
 -12  -1   2   30.95    4.28
 -12   1  -2   28.39    4.69
  12   1   2   30.21    5.53
  12   1   2   24.00    3.96
  12   1  -3   22.09    4.91
  12  -1   3   14.34    4.16
  12   1  -3   20.00    3.78
  12   1  -3   21.41    4.42
  12  -1   3   13.33    3.38
 -12  -1  -3   16.97    5.54
 -12   1   3   21.96    4.36
 -12  -1  -3   20.97    5.13
  12  -1   3   16.23    5.08
 -12   1  -3   21.06    5.01
  12  -1  -3   21.16    4.20
 -12  -1   3   23.25    4.23
  12  -1  -3   22.52    4.57
  12   1   3   19.83    5.45
  12   1   3   18.17    4.08
 -12   1  -3   19.55    5.20
  12  -1  -3   16.22    3.48
  12   1   3   18.01    3.53
  12  -1   4   14.81    5.46
  12   1  -4   20.32    5.02
 -12   1   4   14.89    5.16
 -12  -1  -4   16.59    5.79
  12   1  -4   15.36    5.01
 -12  -1  -4   11.89    3.80
  12   1  -4   18.09    4.43
  12  -1   4   11.32    3.39
  12  -1   4   16.04    4.21
 -12  -1  -4   20.74    5.67
 -12   1   4   14.15    4.33
 -12   1   4   15.96    4.12
  12   1   4   17.10    3.63
 -12   1  -4   12.37    5.20
 -12  -1   4   19.83    4.17
  12   1   4   16.73    4.23
  12  -1  -4   24.03    4.89
  12  -1  -4   16.36    5.23
 -12   1  -4   18.96    5.69
  12  -1  -4   14.16    3.92
  12   1   4   15.09    5.53
  12  -1  -4   12.83    3.99
 -12   1   5   15.37    3.68
  12   1  -5    9.55    5.29
 -12  -1  -5   12.15    5.96
  12  -1   5    7.51    4.18
 -12   1   5    8.22    3.83
 -12   1   5   14.59    4.94
  12   1  -5   11.72    5.00
 -12  -1  -5    8.20    3.75
  12   1  -5   13.37    4.58
 -12   1   5    8.65    5.17
 -12  -1  -5   15.01    6.12
  12  -1   5   11.32    3.52
  12  -1   5    6.52    5.60
 -12   1  -5   14.89    5.62
 -12   1  -5    8.14    3.73
 -12   1  -5   14.79    5.79
 -12  -1   5   15.62    5.19
 -12  -1   5   13.67    4.92
  12   1   5    6.70    5.68
  12  -1  -5    8.00    3.67
  12   1   5   11.97    4.15
  12  -1  -5   15.35    4.30
 -12  -1   5   18.16    3.95
  12   1   5    8.87    3.42
  12  -1  -5    8.45    5.38
  12  -1  -5   15.75    5.01
  12   1  -6    1.49    5.64
  12  -1   6   -0.42    5.91
 -12  -1  -6    4.04    4.93
  12  -1   6    6.80    3.82
 -12   1   6   -1.58    3.89
 -12   1   6    4.92    3.97
 -12  -1  -6    4.75    3.87
  12   1  -6    3.96    5.20
 -12  -1  -6    3.03    6.32
  12  -1   6    0.64    4.34
 -12   1   6   -1.54    5.19
 -12   1   6    3.54    4.82
  12  -1  -6    3.17    5.35
 -12   1  -6    1.03    4.39
 -12  -1   6    4.85    5.13
 -12   1  -6    2.43    5.81
 -12   1  -6    6.27    3.69
  12  -1  -6    2.77    3.76
 -12  -1   6    0.85    4.33
  12  -1  -6   -2.62    5.32
  12   1   6    2.62    6.40
  12   1   6    5.41    4.21
 -12  -1   6   11.60    5.43
  12   1   6    8.36    3.66
 -12  -1  -7    5.69    4.92
 -12   1   7   -4.42    3.86
  12  -1   7   -0.27    3.60
  12   1  -7    1.20    5.89
 -12   1   7    0.56    5.29
  12  -1   7   -2.19    6.47
 -12  -1  -7    6.23    4.00
  12  -1   7   -0.14    4.89
 -12  -1  -7   13.13    6.56
  12   1  -7   -0.17    5.98
 -12   1   7   -0.85    5.88
 -12   1   7    6.27    3.34
 -12   1  -7    2.91    4.69
 -12   1  -7    2.93    6.11
  12  -1  -7   -4.17    5.84
  12   1   7    4.97    3.86
 -12  -1   7   -2.26    5.33
 -12  -1   7    9.51    5.63
 -12  -1   7    2.68    4.59
  12   1   7    6.85    4.76
 -12   1  -7    6.37    4.01
 -12  -1   7    0.85    3.22
  12   1   7   -5.50    6.51
  13  -1   0    4.29    3.66
 -13   1   0    3.43    4.07
  13   1   0    0.91    3.48
  13   1   0    3.13    4.31
 -13  -1   0   -0.99    4.02
  13  -1   0    0.39    3.08
  13   1   0    1.14    3.08
  13  -1   1   -0.36    3.17
  13   1  -1    4.19    3.13
  13   1  -1    1.55    3.54
  13  -1   1    1.72    4.59
  13  -1   1    5.13    3.73
 -13   1   1    1.40    4.01
  13   1  -1    4.61    4.24
 -13  -1  -1    5.47    4.35
  13   1   1    0.91    3.23
  13  -1  -1    4.96    3.93
  13  -1  -1    3.38    3.59
  13   1   1    6.59    4.83
  13   1   1    4.26    3.83
 -13   1  -1    2.16    4.03
  13  -1  -1    3.63    3.09
 -13  -1   1    8.25    4.26
 -13  -1  -2    3.80    4.36
  13  -1   2    0.22    3.19
  13  -1   2    5.73    3.97
  13   1  -2   10.76    3.99
 -13  -1  -2    2.74    4.75
  13  -1   2   -0.18    4.86
  13   1  -2    5.42    3.43
  13   1  -2    8.44    4.46
 -13   1   2    6.94    4.19
  13  -1  -2    4.76    4.24
  13   1   2    4.75    3.56
  13   1   2    3.41    3.70
  13  -1  -2    3.42    3.10
  13   1   2   -0.69    5.04
 -13   1  -2    2.51    4.28
 -13  -1   2    3.78    4.24
  13  -1  -2    6.62    3.68
  13   1  -3    5.45    3.51
  13  -1   3    3.13    3.32
  13   1  -3    8.57    4.23
 -13   1   3    8.44    4.35
  13   1  -3    0.62    4.43
 -13  -1  -3    3.16    5.26
  13  -1   3    1.79    3.76
 -13  -1  -3    2.93    5.00
  13  -1   3   -1.39    4.90
  13  -1  -3    4.21    3.26
 -13   1  -3    2.11    4.78
  13   1   3    5.62    3.32
  13   1   3    2.89    3.76
  13   1   3    3.50    5.14
  13  -1  -3    3.26    3.85
  13  -1  -3    9.77    4.41
 -13  -1   3    6.00    3.98
 -13   1  -3    4.13    4.98
  13   1  -4    8.46    4.18
 -13   1   4    6.12    4.35
 -13   1   4    7.13    4.17
  13   1  -4    1.72    4.33
 -13  -1  -4    9.06    5.69
  13   1  -4    9.23    4.68
 -13  -1  -4   12.70    5.56
 -13  -1  -4   10.75    3.74
  13  -1   4   12.19    4.18
 -13   1   4   15.85    4.27
  13  -1   4    5.46    3.18
  13  -1   4    7.86    5.11
  13  -1  -4   12.80    4.04
  13   1   4    6.39    3.17
 -13   1  -4   12.08    5.54
  13   1   4    3.34    5.25
 -13   1  -4   10.77    5.28
  13   1   4    8.74    3.80
  13  -1  -4   10.41    4.30
  13  -1  -4    9.22    4.92
 -13   1   5   10.39    4.89
  13   1  -5    7.86    5.38
  13  -1   5    2.83    5.69
 -13   1   5   12.23    3.78
 -13  -1  -5    0.82    6.25
 -13  -1  -5    7.64    6.20
 -13   1   5    7.73    4.09
  13  -1   5    9.04    4.36
  13  -1   5    5.71    3.45
 -13  -1  -5    5.98    3.76
  13   1  -5   -4.02    4.33
  13   1  -5   12.38    5.25
 -13   1   5    2.14    5.06
  13  -1  -5    7.24    5.33
  13  -1  -5    8.13    4.92
 -13  -1   5    8.49    4.79
 -13  -1   5    8.82    5.14
 -13   1  -5    1.88    5.71
 -13   1  -5    9.58    5.85
  13   1   5    4.50    3.47
 -13  -1   5    9.18    3.84
 -13   1  -5    4.54    3.74
  13  -1  -5    5.56    3.76
  13  -1  -5   13.40    4.51
  13   1   5    7.56    6.05
  13   1   5    8.36    4.26
  13   1  -6   13.09    5.77
  13   1  -6    8.83    6.11
 -13  -1  -6   13.94    5.61
  13  -1   6   12.24    3.95
 -13  -1  -6   11.39    4.16
  13  -1   6   11.47    4.71
 -13   1   6    7.16    5.55
 -13   1   6    9.56    5.22
 -13  -1  -6    9.65    6.80
  13  -1   6    9.98    6.56
 -13   1   6   12.15    4.32
 -13   1   6   15.90    4.95
 -13  -1   6   13.38    5.60
  13   1   6    2.43    6.32
  13  -1  -6   10.39    5.69
 -13  -1   6   10.08    4.29
 -13   1  -6    7.62    6.75
  13   1   6   11.90    4.75
  13  -1  -6    7.56    5.82
 -13   1  -6    7.53    6.25
 -13  -1   6   12.68    5.70
 -13   1  -6   16.85    4.22
  13  -1  -6    8.05    4.10
  13   1   6   11.80    3.92
  13  -1   7   10.29    5.19
  13  -1   7   10.85    4.13
 -13  -1  -7   14.93    6.99
 -13   1   7    8.10    6.10
 -13  -1  -7    2.95    4.09
 -13   1   7    7.08    4.73
 -13   1   7   -1.94    5.49
  13  -1   7   -3.32    7.17
 -13  -1  -7    6.78    5.31
  13   1  -7   -0.43    6.30
  13   1  -7    4.56    6.32
  13   1   7   13.84    4.31
 -13  -1   7    3.70    4.80
 -13  -1   7   10.15    3.70
 -13   1  -7    3.64    6.36
 -13   1  -7    8.03    5.13
 -13   1  -7    2.26    4.05
  13   1   7   12.94    5.09
  13   1   7    2.36    7.16
 -13  -1   7   14.37    6.25
 -13  -1   7    6.98    5.75
  13  -1  -7   -2.05    6.16
 -14   1   0    9.42    4.74
  14  -1   0   10.65    4.10
  14  -1   0    7.26    3.65
  14   1   0    8.22    3.52
 -14  -1   0    1.00    4.64
  14   1   0    7.54    4.59
  14  -1   0    9.13    4.28
  14   1   0   12.69    4.02
  14  -1   1    4.83    3.57
 -14   1   1    6.99    4.60
  14   1  -1    7.20    4.63
  14  -1   1    9.18    4.84
  14  -1   1    9.61    4.12
  14   1  -1    7.73    3.40
 -14  -1  -1    5.64    4.79
  14   1  -1    5.72    3.84
 -14  -1   1    6.44    4.67
  14   1   1    5.44    3.50
  14   1   1    7.21    4.21
  14   1   1    8.12    5.10
  14  -1  -1    3.52    3.81
 -14   1  -1    9.82    4.52
  14  -1  -1    6.68    3.39
  14   1  -2    8.20    3.99
 -14  -1  -2    2.93    5.17
  14  -1   2    4.26    4.85
 -14  -1  -2   11.15    5.08
 -14   1   2    9.31    4.47
  14   1  -2    5.77    3.58
  14  -1   2    7.15    4.04
  14   1  -2    9.33    4.55
  14  -1   2    8.73    3.30
 -14   1  -2    3.25    4.59
  14   1   2    6.22    3.51
  14   1   2   13.36    5.59
 -14  -1   2    8.43    4.37
  14  -1  -2    7.59    3.68
  14   1   2    7.06    4.14
  14  -1  -2    2.92    3.21
  14  -1   3    9.27    4.95
  14   1  -3    2.92    3.28
 -14  -1  -3   -3.01    4.96
  14  -1   3    6.60    3.85
  14   1  -3   10.09    4.17
  14   1  -3    4.61    4.53
  14  -1   3    6.51    3.27
 -14   1   3    5.16    4.20
 -14  -1  -3    4.67    5.29
 -14   1  -3    2.79    5.08
  14  -1  -3    6.91    4.10
  14   1   3    5.28    5.23
  14  -1  -3    4.96    3.23
  14   1   3    1.43    3.61
 -14  -1   3    3.50    3.90
  14   1   3   -1.64    2.97
 -14   1  -3    5.21    4.98
  14  -1  -3   12.68    3.92
 -14  -1  -4   -2.57    5.62
  14  -1   4   -0.17    3.25
  14  -1   4    4.04    4.14
  14   1  -4    6.26    4.51
  14   1  -4    8.04    4.24
 -14  -1  -4    2.84    3.82
 -14   1   4   -1.53    3.91
 -14   1   4   -2.21    4.52
 -14   1   4    2.06    4.31
 -14  -1  -4   -1.14    5.81
  14  -1   4   -3.55    4.93
  14   1   4    2.61    3.79
 -14   1  -4    2.91    5.53
 -14   1  -4   -4.65    5.47
  14   1   4    3.00    3.29
  14   1   4   -0.14    5.36
 -14  -1   4    3.37    4.09
  14  -1  -4    4.83    4.04
  14  -1  -4    9.78    4.52
 -14   1   5   -3.39    4.90
  14   1  -5    5.09    4.90
  14  -1   5   12.56    3.83
 -14   1   5    6.67    3.74
  14  -1   5   -3.31    5.63
 -14  -1  -5   -3.22    6.64
  14  -1   5   -0.60    4.40
 -14   1   5    6.62    4.53
 -14   1   5    0.48    4.62
 -14  -1  -5   -1.81    3.75
  14   1  -5    8.54    5.15
 -14  -1  -5    6.58    6.41
 -14  -1   5    4.84    4.00
 -14  -1   5    4.21    4.87
  14   1   5    2.78    4.05
  14   1   5    7.69    6.06
  14  -1  -5   10.23    4.74
  14   1   5    5.96    3.55
 -14   1  -5   -5.95    3.65
 -14   1  -5    8.99    6.38
  14  -1  -5   -1.27    5.32
 -14   1  -5   -0.01    6.14
  14  -1  -5    5.35    5.05
  14   1  -6    5.57    5.58
  14  -1   6    2.02    4.69
 -14   1   6    0.21    4.95
 -14   1   6    3.09    4.13
 -14  -1  -6   -0.69    3.81
 -14  -1  -6    6.74    6.98
  14  -1   6   -2.87    6.26
 -14   1   6   -0.54    5.51
  14  -1   6    7.79    3.79
 -14  -1  -6    0.90    5.37
 -14   1  -6    4.90    7.04
  14  -1  -6    5.68    5.31
  14   1   6    2.39    4.40
 -14  -1   6    6.85    5.55
 -14   1  -6   -1.61    6.28
  14  -1  -6   -2.19    6.00
 -14  -1   6    5.33    4.35
  14   1   6    2.65    3.82
 -14   1  -6    0.21    3.85
  14   1   6   -1.01    6.35
  15   1   0    5.72    4.29
  15  -1   0    6.40    3.41
  15   1   0    2.56    3.75
  15  -1   0    0.78    3.56
  15   1   0    4.18    3.31
 -15   1   0    0.95    4.40
 -15  -1   0    3.82    4.76
  15   1  -1   10.71    4.37
 -15   1   1    3.10    4.57
  15  -1   1    9.00    4.67
  15   1  -1    1.25    3.07
  15  -1   1    4.79    4.12
  15  -1   1    2.00    3.44
 -15  -1  -1    1.06    4.67
  15   1  -1    0.18    3.64
  15  -1  -1    7.31    3.83
  15   1   1    8.78    5.03
  15   1   1    1.57    3.99
 -15  -1   1   -0.60    4.38
  15  -1  -1    0.65    3.10
 -15   1  -1   -1.01    4.29
  15   1   1   -0.79    3.26
 -15  -1  -2    5.75    5.11
  15  -1   2    8.81    4.25
  15  -1   2   13.10    5.01
  15   1  -2    6.23    4.00
 -15  -1  -2    6.02    5.13
  15   1  -2    8.45    3.66
 -15   1   2    5.07    4.41
  15   1  -2   11.25    4.58
  15  -1   2    6.04    3.30
 -15   1  -2    3.45    4.52
  15  -1  -2    6.18    3.26
  15  -1  -2    4.62    3.59
 -15   1  -2    9.31    5.15
 -15  -1   2    2.45    4.29
  15   1   2   11.37    4.27
  15   1   2   12.12    5.24
  15   1   2   13.86    3.78
  15  -1  -2    9.00    4.25
  15  -1   3   -3.13    4.90
  15  -1   3    3.37    4.03
  15   1  -3    1.75    3.47
  15   1  -3   11.50    4.24
  15  -1   3    8.07    3.48
 -15   1   3    6.50    4.68
  15   1  -3   13.93    4.86
 -15  -1  -3    6.34    5.65
 -15  -1  -3    5.73    5.63
 -15   1  -3    4.49    5.37
  15   1   3    4.57    5.36
  15   1   3    0.00    3.01
  15  -1  -3    3.16    3.38
 -15  -1   3    7.79    4.40
 -15   1  -3   12.71    5.64
  15   1   3    7.26    3.87
  15  -1  -3    9.82    4.07
  15  -1  -3    6.59    4.32
 -15   1   4   -1.68    4.38
 -15   1   4    9.72    4.39
 -15  -1  -4    9.28    6.47
  15  -1   4   -2.03    5.27
  15  -1   4    3.79    4.28
  15  -1   4    4.98    3.63
 -15  -1  -4    1.99    6.25
  15   1  -4    6.12    4.71
 -15  -1  -4    2.23    4.04
  15   1  -4    4.63    4.36
  15   1   4    9.62    4.32
 -15  -1   4    6.21    4.47
  15   1   4    4.23    3.52
 -15   1  -4   -3.94    5.88
  15  -1  -4    5.36    4.46
  15  -1  -4    8.86    4.31
  15   1   4    4.53    5.64
 -15   1  -4    8.11    6.08
  15  -1  -4    4.62    3.48
  15   1  -5    5.16    4.82
 -15  -1  -5    5.49    4.15
  15  -1   5    7.86    5.99
  15   1  -5   13.39    5.53
 -15   1   5    2.90    4.65
 -15  -1  -5    5.94    6.54
  15  -1   5   13.04    4.05
 -15  -1  -5    4.34    6.98
  15  -1   5    7.79    4.59
 -15   1   5    1.91    4.77
  15  -1  -5    5.83    4.75
 -15   1  -5    2.28    4.00
  15   1   5    8.08    3.72
 -15   1  -5    1.64    6.33
 -15  -1   5    8.87    4.91
  15   1   5   10.21    4.63
  15  -1  -5   10.20    5.34
  15   1   5    4.00    5.92
 -15   1  -5    7.57    6.51
  15  -1   6    5.95    3.88
 -15  -1  -6    2.19    6.02
 -15  -1  -6    9.32    7.24
 -15   1   6    3.04    4.10
  15  -1   6    2.64    4.80
 -15  -1  -6    0.74    4.06
  15   1  -6    7.08    5.74
  15  -1   6    1.61    6.42
 -15   1   6    2.26    5.07
  15  -1  -6    8.07    5.64
  15   1   6    7.85    4.75
 -15  -1   6    6.11    5.67
 -15   1  -6   -1.85    3.89
  15   1   6    0.97    6.54
 -15   1  -6    6.54    6.79
 -15  -1   6    4.11    4.21
 -15   1  -6   10.98    7.56
  15   1   6    9.04    4.09
  16  -1   0    5.46    3.44
 -16   1   0    1.35    4.59
  16   1   0    4.97    3.46
 -16  -1   0    3.94    4.86
  16   1   0    9.50    3.96
  16   1   0   12.22    4.29
  16  -1   0    8.45    3.87
  16   1  -1   17.01    4.52
  16  -1   1    9.39    4.10
 -16  -1  -1    3.98    4.97
 -16  -1  -1    7.34    5.32
 -16   1   1    5.46    4.85
  16   1  -1   11.55    3.99
  16   1  -1    6.41    3.48
  16  -1   1    2.41    3.67
  16  -1   1   13.71    4.64
  16  -1  -1    7.92    3.52
 -16   1  -1    3.96    4.85
 -16  -1   1    4.72    4.80
  16   1   1    4.81    3.60
  16   1   1   14.08    5.01
  16  -1  -1   12.03    3.87
  16   1   1    7.33    4.21
  16  -1   2    3.86    4.25
  16   1  -2    6.57    3.77
  16   1  -2    8.47    4.20
  16  -1   2    8.24    3.90
  16  -1   2   16.23    4.96
  16   1  -2    7.58    4.58
 -16   1   2    1.90    4.87
 -16  -1  -2    0.10    5.30
 -16  -1  -2    2.42    5.44
 -16  -1   2    2.50    4.70
  16  -1  -2    7.54    3.54
 -16   1  -2    6.90    5.64
 -16   1  -2    2.99    4.88
  16   1   2    2.21    3.63
  16  -1  -2   10.04    3.87
  16   1   2   11.14    4.38
  16  -1  -2   11.54    4.49
  16   1   2    7.23    5.04
  16  -1   3    9.65    4.37
  16   1  -3    3.58    4.52
  16  -1   3    4.51    5.15
 -16  -1  -3    0.72    5.88
  16   1  -3   10.74    4.52
  16   1  -3   10.64    3.85
 -16  -1  -3   -1.91    5.84
 -16   1   3    1.54    4.73
  16  -1   3    4.17    3.46
  16  -1  -3   18.48    4.41
  16  -1  -3    5.90    4.42
 -16   1  -3    7.59    5.91
  16   1   3    3.17    4.74
  16   1   3    6.96    3.90
 -16  -1   3    2.87    4.73
 -16   1  -3    8.29    6.10
  16  -1  -3    1.50    3.37
  16   1   3    1.83    5.47
  16  -1   4    6.21    4.57
 -16   1   4   -0.16    4.77
  16   1  -4    3.68    4.47
 -16  -1  -4   -4.93    4.12
 -16  -1  -4    0.83    6.36
  16  -1   4   -1.35    5.35
 -16   1   4    1.71    4.34
 -16  -1  -4    9.40    6.80
  16   1  -4   11.66    5.01
  16  -1   4    1.55    3.48
  16  -1  -4    4.96    3.68
  16   1   4    7.79    4.34
 -16   1  -4   -2.26    6.26
  16   1   4    8.30    3.62
  16  -1  -4    4.03    4.66
  16  -1  -4   10.90    4.44
 -16  -1   4   -1.19    4.50
  16   1   4   -0.12    5.74
 -16   1  -4    4.31    6.63
 -16  -1  -5    3.64    6.71
 -16   1   5    6.29    6.29
  16   1  -5    5.00    5.00
  16   1  -5   11.74    5.45
 -16  -1  -5    0.30    7.10
  16  -1   5    3.32    4.48
 -16   1   5    0.29    5.08
  16  -1   5    0.96    3.64
 -16  -1  -5   -2.20    4.12
  16  -1   5   -3.47    5.74
 -16   1  -5   -6.18    6.35
  16   1   5   -0.15    6.03
  16   1   5    7.50    4.01
 -16  -1   5    5.87    5.15
  16  -1  -5    4.65    4.68
  16  -1  -5    3.67    5.49
 -16   1  -5   -0.78    6.75
  16   1   5    7.86    4.54
 -16   1  -5   -1.06    4.13
  17   1   0    2.55    3.92
  17  -1   0    1.39    3.41
 -17   1   0    0.76    4.96
  17   1   0    3.91    3.66
  17  -1   0    8.69    4.02
 -17  -1   0    0.33    5.11
  17   1   0   11.53    4.44
  17   1  -1    9.33    4.09
  17  -1   1    2.73    4.23
  17   1  -1   12.43    4.32
 -17   1   1    2.37    5.17
 -17  -1  -1    5.78    5.84
 -17  -1  -1    4.58    5.38
  17  -1   1    0.22    3.75
  17   1  -1    3.87    3.56
 -17  -1   1    1.65    5.15
  17   1   1    2.27    3.71
  17  -1  -1    7.67    3.50
  17  -1  -1    7.31    3.81
 -17   1  -1    0.78    5.01
  17   1   1   11.73    4.93
  17   1   1    2.69    4.38
  17   1  -2   12.08    4.60
 -17  -1  -2   -2.33    5.90
  17   1  -2    5.63    3.87
  17   1  -2   11.51    4.44
  17  -1   2    7.13    4.12
  17  -1   2   12.85    4.62
 -17   1   2    3.30    5.14
  17  -1   2   17.33    5.27
 -17  -1  -2    1.00    5.84
  17  -1  -2    6.31    3.68
  17   1   2    7.86    4.84
  17   1   2    9.40    4.08
  17  -1  -2    8.73    3.88
 -17   1  -2    2.75    5.21
  17   1   2   10.11    5.61
 -17  -1   2    7.79    5.17
 -17   1  -2   11.12    6.14
  17  -1   3   10.66    4.59
 -17  -1  -3    5.78    6.43
  17  -1   3    0.50    5.33
  17   1  -3   13.01    4.62
  17  -1   3    2.96    3.56
 -17   1   3    6.25    5.18
 -17  -1  -3    6.69    6.33
  17   1  -3    6.02    4.65
  17   1  -3    2.72    3.79
  17  -1  -3    9.68    4.44
 -17   1  -3    1.25    6.11
  17   1   3    7.83    4.24
  17   1   3    3.77    5.78
  17   1   3   10.89    4.98
 -17  -1   3    3.05    5.08
 -17   1  -3    7.87    6.58
  17  -1  -3    7.97    3.82
  17   1  -4    9.30    4.68
 -17  -1  -4   -1.77    4.37
  17   1  -4   13.90    5.04
  17  -1   4    3.46    4.55
 -17  -1  -4    2.88    6.88
 -17  -1  -4   -6.44    6.39
  17  -1   4    4.26    3.61
 -17   1   4    2.55    5.07
  17  -1   4    5.20    5.77
 -17  -1   4   -2.17    5.01
  17  -1  -4    7.22    4.46
  17   1   4    3.77    3.49
 -17   1  -4    0.46    6.58
 -17   1  -4    1.54    6.54
  17   1   4    6.44    6.05
  17  -1  -4    8.11    3.81
  17   1   4    0.79    4.12
  18  -1   0   11.27    3.90
  18   1   0   16.39    4.59
 -18  -1   0    6.84    5.64
  18   1   0   23.16    5.05
  18  -1   0   16.55    4.33
 -18   1   0    0.13    5.31
  18   1   0    9.12    4.10
 -18  -1  -1    1.62    5.75
  18   1  -1    8.09    3.93
  18   1  -1   22.61    4.90
 -18  -1  -1    4.47    6.13
  18   1  -1   11.02    4.34
  18  -1   1   15.11    4.11
 -18   1   1    8.88    5.45
  18  -1   1    6.74    4.39
  18  -1  -1    3.82    3.55
  18   1   1   10.77    4.53
  18   1   1   19.18    4.90
  18   1   1   13.64    4.27
 -18   1  -1    0.90    5.49
 -18  -1   1    5.74    5.56
  18  -1  -1   10.96    4.23
  18   1  -2    6.26    4.03
  18  -1   2    8.40    4.80
  18  -1   2    7.65    4.23
  18   1  -2    7.76    4.56
 -18  -1  -2   -5.16    6.01
 -18  -1  -2    2.91    6.22
  18   1  -2   17.16    4.90
 -18   1   2    2.88    5.47
  18  -1  -2   15.20    4.39
  18   1   2    9.83    4.20
  18   1   2   14.82    5.43
 -18  -1   2    2.01    5.22
 -18   1  -2   11.90    6.45
 -18   1  -2    3.57    6.07
  18  -1  -2    6.43    4.02
  18   1   2    6.74    4.84
  18  -1   3   13.22    5.17
 -18   1   3   12.61    5.94
 -18  -1  -3    4.39    6.53
  18  -1   3    6.74    4.37
  18   1  -3   18.12    4.80
  18  -1   3   12.84    5.78
 -18  -1  -3   -0.92    6.40
  18   1  -3    3.57    3.88
  18   1  -3   15.80    5.02
  18  -1  -3   11.96    4.52
  18   1   3   14.77    4.49
  18  -1  -3   15.45    4.02
  18   1   3   11.39    5.07
 -18   1  -3    0.08    6.30
  18   1   3   12.57    5.82
 -18   1  -3    2.27    6.55
 -18  -1   3    0.58    5.31
  18  -1   4    5.12    4.76
  18   1  -4   14.59    5.17
  18   1  -4   14.16    5.43
  18  -1   4    6.34    3.80
 -18  -1  -4    9.79    7.62
 -18   1   4   -1.27    5.36
  18  -1   4    2.90    6.33
 -18  -1  -4    0.79    6.80
 -18  -1  -4    2.37    4.85
  18   1   4    6.55    5.48
  18  -1  -4    8.05    4.02
  18  -1  -4   10.58    4.79
  18   1   4    2.91    6.14
  18   1   4    7.45    4.64
 -18   1  -4   -6.10    6.57
 -18   1  -4   -4.05    6.89
  19   1   0    3.22    4.44
  19  -1   0    1.92    3.75
  19   1   0    9.08    4.02
 -19   1   0   -8.37    5.32
  19   1   0   16.30    4.64
 -19  -1   0    4.06    6.00
  19  -1   0    9.77    4.23
 -19   1   1    0.89    5.65
  19   1  -1   13.81    4.47
  19  -1   1    4.55    4.23
  19   1  -1    8.95    4.00
 -19  -1  -1   -1.19    6.12
  19   1  -1   16.04    4.55
 -19  -1  -1    5.79    6.32
  19  -1   1    3.31    4.00
  19  -1  -1   11.10    4.18
  19  -1  -1    6.23    3.76
  19   1   1   12.03    4.66
 -19   1  -1   -3.53    5.54
  19   1   1   18.89    4.72
  19   1   1    3.25    4.08
 -19  -1   1    6.83    5.84
  19   1  -2    6.75    4.13
  19  -1   2    7.53    4.29
  19   1  -2   17.05    5.02
 -19  -1  -2   -0.06    6.41
  19   1  -2   11.60    4.84
  19  -1   2    5.34    4.76
 -19  -1  -2   -5.79    6.36
 -19   1   2   -0.51    5.70
 -19   1  -2   -0.11    6.37
 -19   1  -2   -1.18    6.17
  19   1   2   10.01    5.17
  19  -1  -2    7.51    4.38
  19   1   2   -0.05    4.08
 -19  -1   2   -2.50    5.57
  19  -1  -2    3.32    3.75
  19   1   2   12.23    5.45
  20  -1   0   11.87    4.26
  20   1   0   12.04    4.30
   0  -2   0  531.47    9.01
   0   2   0  539.45    9.04
   0   2   0  551.54    8.43
   0  -2   0  563.48    8.42
   0  -2   1  948.89   14.57
   0  -2   1  972.62   14.45
   0   2  -1  904.70   14.47
   0  -2  -1  931.27   15.37
   0  -2  -1  940.71   14.85
   0  -2  -1  938.88   15.51
   0   2   1  939.62   15.44
   0  -2   1  905.43   15.60
   0   2  -1  962.87   14.40
   0  -2   1  936.20   14.80
   0   2  -1  944.07   14.87
   0  -2  -1  975.92   14.90
   0  -2  -1 1000.00   14.71
   0  -2   1  963.22   14.89
   0   2   1  949.63   15.49
   0  -2  -1  990.16   14.38
   0   2  -1  992.02   15.84
   0   2   1  937.03   14.81
   0   2  -2  274.99    6.45
   0  -2   2  266.78    6.32
   0  -2  -2  276.51    7.07
   0  -2   2  283.19    5.54
   0   2  -2  270.66    7.42
   0  -2  -2  274.62    5.29
   0  -2  -2  278.23    5.80
   0   2   2  274.42    6.36
   0  -2  -2  275.94    6.11
   0  -2   2  274.75    5.82
   0   2   3  204.03    6.03
   0  -2   3  205.97    5.36
   0   2  -3  200.62    7.13
   0  -2  -3  202.93    5.12
   0  -2   3  199.17    5.97
   0  -2  -3  203.27    6.90
   0  -2  -3  206.94    5.54
   0  -2   3  211.56    4.96
   0  -2  -3  200.95    4.53
   0   2  -4  148.21    7.20
   0   2   4  159.87    6.29
   0  -2  -4  160.47    5.43
   0   2   4  160.68    5.10
   0  -2  -4  157.75    5.05
   0  -2  -4  157.17    7.18
   0  -2   4  160.43    6.27
   0   2   4  158.92    4.45
   0  -2   4  158.34    4.91
   0  -2   4  159.85    5.38
   0   2   5   56.92    5.56
   0  -2   5   65.60    4.80
   0   2  -5   57.83    6.35
   0  -2   5   57.26    4.08
   0  -2   5   53.50    5.28
   0  -2  -5   56.53    6.14
   0  -2  -5   57.67    4.64
   0  -2  -5   58.10    4.27
   0   2   5   61.02    4.68
   0   2   5   60.98    3.77
   0   2  -6   42.66    6.93
   0  -2  -6   39.56    6.69
   0   2   6   48.78    5.49
   0   2   6   36.96    3.90
   0  -2  -6   38.76    4.62
   0   2   6   47.34    6.14
   0  -2   6   44.05    4.65
   0  -2   6   43.15    5.07
   0  -2  -6   43.09    4.89
   0  -2   6   39.94    5.91
   0   2  -7   21.61    6.49
   0  -2  -7   29.21    4.70
   0  -2  -7   17.71    6.16
   0  -2   7   23.25    5.13
   0   2   7   19.49    3.73
   0   2   7   22.51    5.99
   0   2   7   13.37    4.74
   0  -2   7   18.82    4.40
   0  -2   7   21.10    5.77
   0   2   8   -3.55    4.75
   0  -2  -8   14.82    4.04
   0   2   8   -0.75    6.12
   0   2   8   -0.42    3.60
   0  -2   8    3.41    5.36
   0  -2   8    6.58    4.25
   0  -2   8    8.25    6.12
   0  -2  -8    6.96    6.34
   0   2  -8    5.98    6.31
   0  -2  -8    9.37    3.70
   0  -2   9   -2.33    4.37
   0  -2   9   -9.90    5.42
   0  -2   9   -6.02    6.64
   0  -2  -9    8.23    5.54
   0   2  -9    5.33    6.87
   0  -2  -9   -3.07    5.86
   0   2   9  -13.04    5.16
   0  -2  -9   12.36    4.10
  -1   2   0  146.76    3.42
  -1  -2   0  143.63    2.54
  -1  -2   0  142.38    3.05
  -1  -2   0  152.70    2.52
   1   2   0  143.31    3.12
  -1   2   0  144.56    2.77
  -1   2   0  144.88    2.52
   1   2   0  146.26    2.57
   1   2   0  146.73    2.51
  -1  -2   0  146.02    2.96
   1  -2   0  143.55    2.76
  -1   2   0  143.49    2.66
   1   2   0  147.52    2.98
   1  -2   0  146.86    2.53
  -1  -2  -1   95.76    2.29
  -1  -2  -1   91.89    2.81
   1  -2   1   93.08    2.31
   1   2  -1   93.54    2.67
   1  -2   1   88.58    2.43
   1  -2   1   91.17    2.53
  -1  -2  -1   91.38    2.69
  -1  -2  -1   94.79    2.59
   1   2  -1   90.77    2.25
   1  -2   1   97.60    3.22
  -1  -2  -1   89.33    2.73
  -1   2   1   98.85    2.14
   1  -2   1   89.53    2.45
   1   2  -1   93.28    3.24
  -1   2   1   94.04    3.15
  -1  -2   1   95.13    2.29
   1  -2  -1   95.08    2.42
  -1   2  -1   87.27    2.44
  -1   2  -1  100.74    3.44
   1  -2  -1   94.08    2.19
   1  -2  -1   95.86    3.10
  -1  -2   1   94.37    3.09
  -1  -2   1   94.53    2.57
  -1   2  -1   94.28    2.26
   1  -2  -1   95.24    2.60
   1   2   1   95.79    2.95
   1   2   1   93.69    2.76
   1   2   1   93.85    2.88
  -1  -2   1   94.86    2.43
  -1   2  -1   89.04    2.32
  -1  -2  -2   92.39    4.23
   1   2  -2   87.67    4.62
   1  -2   2   93.64    3.09
  -1   2   2   95.73    3.67
  -1  -2  -2   87.00    2.89
   1  -2   2   92.00    3.37
  -1  -2  -2   88.76    3.69
   1   2  -2   90.79    3.81
  -1  -2  -2   88.98    3.36
   1  -2   2   90.38    3.71
  -1  -2   2   85.23    3.68
  -1  -2   2   86.11    2.88
   1  -2  -2   89.44    4.30
   1  -2  -2   89.03    3.45
   1  -2  -2   88.74    3.16
   1   2   2   92.09    3.83
   1   2   2   89.78    2.99
   1  -2  -2   82.25    2.68
  -1   2  -2   85.56    4.55
  -1  -2   2   87.73    3.22
  -1   2   3   47.27    3.45
  -1  -2  -3   47.37    3.30
   1  -2   3   51.49    3.43
  -1  -2  -3   50.76    2.54
   1  -2   3   50.31    2.80
   1  -2   3   52.26    3.10
   1   2  -3   52.62    4.27
  -1  -2  -3   54.16    4.10
   1   2  -3   52.04    3.53
  -1  -2  -3   48.77    2.94
   1  -2  -3   50.02    4.10
  -1  -2   3   50.72    2.69
   1  -2  -3   49.82    2.81
   1  -2  -3   48.94    3.15
  -1   2  -3   48.01    4.17
  -1  -2   3   50.31    3.10
   1  -2  -3   44.95    2.41
   1   2   3   49.19    2.38
   1   2   3   50.85    2.92
  -1  -2   3   52.03    3.46
   1   2   3   49.36    3.58
  -1  -2  -4   33.86    3.66
   1  -2   4   31.49    3.14
   1   2  -4   32.45    4.65
  -1  -2  -4   28.28    4.53
  -1   2   4   30.78    4.06
  -1  -2  -4   26.31    3.19
  -1  -2  -4   31.92    2.78
  -1   2   4   32.62    3.19
   1  -2   4   36.13    3.99
   1  -2   4   31.99    3.50
   1  -2  -4   32.16    3.55
   1  -2  -4   29.68    3.14
   1  -2  -4   33.85    4.57
   1  -2  -4   32.32    2.68
  -1  -2   4   32.22    3.39
  -1  -2   4   33.40    2.95
  -1  -2   4   41.73    4.01
   1   2   4   32.04    4.16
   1   2   4   33.49    2.76
   1   2   4   34.00    3.43
  -1   2  -4   35.53    4.75
   1  -2   5   16.49    3.18
   1   2  -5   16.00    4.68
   1  -2   5   16.48    4.01
  -1  -2  -5   11.95    3.16
  -1  -2  -5   18.22    3.61
  -1  -2  -5   16.38    4.64
  -1   2   5   12.09    3.90
   1  -2   5   20.09    3.67
  -1   2   5   18.47    3.43
  -1   2   5   21.66    2.85
   1  -2  -5   16.26    3.40
   1   2   5   16.44    2.74
   1  -2  -5   19.73    3.15
   1   2   5   18.75    3.44
  -1  -2   5   15.33    3.83
  -1   2  -5   14.31    4.57
  -1  -2   5   15.53    3.00
   1   2   5   19.68    4.09
  -1  -2   5   16.18    3.40
   1  -2  -5   16.82    4.47
   1  -2   6   16.14    4.93
   1  -2   6   19.38    4.65
  -1   2   6   15.02    4.19
  -1  -2  -6   13.26    5.62
   1   2  -6   11.75    5.33
  -1  -2  -6   13.37    4.09
  -1   2   6   11.96    3.42
  -1   2   6   14.91    4.98
   1  -2   6   12.68    3.78
  -1  -2  -6   11.35    3.60
   1   2   6   11.57    3.32
   1   2   6   12.07    4.29
  -1  -2   6    6.73    3.42
  -1   2  -6   12.77    5.41
   1  -2  -6   12.95    3.91
   1   2   6   13.12    4.87
  -1  -2   6    8.96    4.38
  -1  -2   6   12.02    4.27
   1  -2  -6    7.12    5.03
   1  -2  -6   11.26    3.60
  -1  -2  -7   15.03    3.67
  -1  -2  -7   20.56    4.32
  -1   2   7   10.74    3.51
  -1  -2  -7   22.36    6.34
  -1   2   7   14.73    5.75
   1  -2   7   11.55    4.13
   1  -2   7   10.69    4.76
  -1   2   7    8.87    4.49
   1  -2   7    9.24    5.33
   1   2  -7   12.18    5.83
  -1  -2   7   10.20    4.01
   1   2   7   10.85    5.57
   1  -2  -7   19.60    3.78
   1  -2  -7   14.77    3.94
  -1  -2   7   10.94    5.15
  -1  -2   7   10.60    4.69
   1  -2  -7   19.20    3.27
   1   2   7   11.72    4.82
  -1   2  -7   11.77    5.99
   1  -2  -7    7.97    5.71
   1   2   7   12.73    3.62
  -1  -2  -8    5.36    4.07
   1   2  -8    6.08    6.19
  -1   2   8   -6.25    6.19
   1  -2   8   -4.70    3.99
  -1   2   8    0.45    4.83
   1  -2   8    0.53    5.97
  -1  -2  -8   10.48    3.86
   1  -2   8   -2.26    5.17
  -1  -2  -8    7.16    6.04
  -1   2   8   -4.61    3.43
   1  -2  -8    6.49    6.07
  -1  -2   8   -3.09    5.06
   1  -2  -8    6.43    3.35
  -1  -2   8    1.87    5.75
   1   2   8   -6.67    4.82
   1   2   8   -6.69    5.96
  -1   2  -8    3.66    5.96
   1  -2  -8   10.70    3.85
  -1  -2   8    0.48    4.05
   1   2   8    3.46    3.68
  -1  -2  -9    5.88    3.76
   1  -2   9   -9.67    4.16
   1  -2   9   -9.66    6.66
  -1   2   9  -12.17    5.14
  -1  -2  -9    3.05    6.27
   1  -2   9  -10.94    5.57
  -1  -2  -9    6.90    4.22
   1   2  -9    3.43    6.67
  -1  -2   9   -6.99    4.22
  -1  -2   9   -9.05    6.30
   1  -2  -9    0.62    6.31
  -1   2  -9    0.38    6.34
  -1  -2   9  -13.06    5.24
   1   2   9  -14.89    5.03
  -2  -2   0  669.46    9.83
  -2   2   0  639.22    9.75
  -2   2   0  615.37   10.09
   2  -2   0  661.09    9.76
  -2  -2   0  647.09    9.90
   2   2   0  664.22    9.84
   2  -2   0  634.74   10.78
   2   2   0  648.90   10.51
  -2  -2   0  622.24   10.06
   2   2   0  646.44    9.92
  -2   2   0  653.85    9.80
  -2   2   0  661.13   10.18
  -2   2   0  649.79   10.93
   2  -2   0  634.89   10.14
   2   2   0  619.46   10.02
   2  -2   1  873.77   14.33
  -2  -2  -1  825.42   13.52
  -2  -2  -1  841.17   13.27
  -2  -2  -1  813.56   12.82
   2   2  -1  839.73   13.57
  -2  -2  -1  783.27   13.50
  -2   2   1  813.47   14.10
   2  -2   1  828.62   12.88
   2  -2   1  828.27   13.17
  -2  -2  -1  850.69   12.89
   2   2  -1  826.31   13.03
  -2   2   1  833.49   13.08
  -2   2   1  850.54   13.34
  -2   2   1  856.39   12.78
  -2  -2  -1  855.17   12.65
   2   2  -1  828.97   14.07
   2  -2   1  845.76   13.00
  -2   2   1  815.77   14.18
   2   2   1  845.93   13.21
   2   2   1  823.05   12.80
   2   2   1  864.57   12.62
   2  -2  -1  826.05   13.06
   2  -2  -1  841.67   14.16
  -2   2  -1  814.40   12.94
   2  -2  -1  837.76   13.29
  -2   2  -1  853.77   12.98
   2  -2  -1  827.87   14.26
   2   2   1  824.78   13.42
  -2  -2   1  820.11   13.92
   2  -2  -1  830.98   12.74
  -2   2  -1  792.73   13.04
   2   2   1  819.53   13.60
  -2   2  -1  879.40   14.42
  -2   2   2  235.66    5.62
   2  -2   2  255.21    5.25
  -2  -2  -2  243.07    5.84
   2  -2   2  249.57    5.60
   2   2  -2  245.30    5.96
  -2   2   2  240.99    6.88
  -2  -2  -2  232.91    4.62
   2  -2   2  237.67    5.90
  -2  -2  -2  246.07    6.41
  -2  -2  -2  240.83    5.49
  -2  -2  -2  243.18    4.94
   2   2  -2  235.53    6.92
  -2  -2   2  247.87    6.04
   2   2   2  245.90    6.23
  -2  -2   2  252.08    5.07
   2   2   2  247.33    5.17
   2  -2  -2  245.91    6.80
  -2   2  -2  242.44    6.99
   2  -2  -2  244.97    5.53
   2   2   2  245.10    4.72
   2  -2  -2  245.89    4.78
  -2  -2   2  243.83    5.39
   2  -2  -2  244.11    5.20
   2  -2   3  208.44    5.07
  -2  -2  -3  196.39    4.61
   2  -2   3  195.51    6.02
  -2   2   3  198.26    5.85
   2   2  -3  195.66    6.02
  -2  -2  -3  197.85    5.28
   2  -2   3  197.69    5.43
  -2  -2  -3  197.35    5.64
   2   2  -3  193.66    7.03
  -2  -2  -3  202.74    6.74
  -2  -2   3  199.45    6.07
   2   2   3  199.47    5.07
   2  -2  -3  189.85    5.23
   2  -2  -3  200.91    6.92
  -2  -2   3  209.64    4.88
  -2   2  -3  201.94    7.10
  -2  -2   3  199.51    5.15
   2   2   3  205.40    4.55
   2  -2  -3  201.97    4.42
   2   2   3  197.82    6.13
   2  -2  -3  194.55    4.89
  -2  -2  -4  114.66    5.11
   2   2  -4  113.95    5.43
   2  -2   4  118.70    5.66
  -2  -2  -4  111.05    3.91
  -2  -2  -4  111.48    4.57
   2   2  -4  109.27    6.55
  -2  -2  -4  116.68    6.28
   2  -2   4  113.01    4.94
   2  -2   4  116.14    4.44
  -2   2   4  116.70    5.50
  -2  -2   4  121.14    4.80
   2   2   4  118.23    3.96
   2  -2  -4  115.88    4.65
   2  -2  -4  117.02    4.29
  -2  -2   4  108.26    5.35
  -2  -2   4  117.58    4.16
   2   2   4  107.38    5.60
   2  -2  -4  108.35    6.31
  -2   2  -4  112.97    6.55
   2   2   4  117.14    4.60
  -2  -2  -5   60.00    5.12
  -2  -2  -5   61.97    3.77
   2  -2   5   66.54    4.46
  -2  -2  -5   59.75    4.58
  -2   2   5   65.55    5.78
   2   2  -5   65.28    6.63
   2  -2   5   63.13    5.16
  -2  -2  -5   67.38    6.40
   2  -2   5   63.37    5.76
  -2   2   5   67.17    4.60
  -2   2   5   61.81    3.73
   2  -2  -5   60.62    4.52
   2  -2  -5   56.46    6.23
   2   2   5   69.82    4.91
  -2   2  -5   60.22    6.39
   2   2   5   61.70    3.93
   2   2   5   63.67    5.76
  -2  -2   5   69.40    4.82
  -2  -2   5   65.84    5.48
   2  -2  -5   58.32    4.10
  -2  -2   5   62.66    4.03
  -2  -2  -6   32.70    6.43
  -2  -2  -6   38.43    5.00
   2  -2   6   35.20    4.50
   2  -2   6   36.07    5.87
  -2   2   6   37.33    3.93
  -2   2   6   46.99    4.82
   2   2  -6   34.33    6.70
  -2   2   6   35.31    5.80
  -2  -2  -6   38.74    4.62
   2  -2   6   40.00    5.19
  -2  -2   6   34.14    4.19
   2   2   6   40.17    5.03
   2  -2  -6   35.23    4.35
   2  -2  -6   32.67    3.46
   2   2   6   38.91    5.87
   2  -2  -6   38.57    4.24
   2  -2  -6   39.62    6.77
  -2  -2   6   36.11    4.96
  -2   2  -6   35.23    6.81
   2   2   6   39.36    4.03
  -2  -2   6   34.97    5.58
  -2   2   7    5.85    4.38
   2  -2   7   11.90    4.74
  -2  -2  -7   10.39    4.11
   2  -2   7    5.38    3.88
   2   2  -7   12.81    6.09
   2  -2   7    5.46    5.24
  -2  -2  -7   11.29    3.78
  -2  -2  -7   10.76    5.74
  -2   2   7    7.73    3.43
  -2   2   7    8.65    5.43
  -2  -2   7    6.15    3.46
   2  -2  -7   13.85    5.88
   2   2   7    8.99    5.39
  -2   2  -7   10.05    5.55
   2  -2  -7   17.90    3.89
   2  -2  -7   15.17    3.47
   2   2   7    8.57    3.50
  -2  -2   7   11.27    4.67
  -2  -2   7    7.13    4.77
   2   2   7    7.43    4.52
   2  -2   8    2.11    5.44
  -2   2   8    5.48    3.75
   2   2  -8    7.42    6.54
  -2   2   8   -2.63    4.61
   2  -2   8    8.38    6.52
  -2  -2  -8    7.57    6.32
  -2   2   8   -2.88    6.06
   2  -2   8    5.32    4.32
  -2  -2  -8   11.25    3.94
  -2  -2  -8    7.31    4.29
  -2   2  -8    5.89    6.11
   2   2   8    5.40    3.89
   2  -2  -8    9.95    2.94
  -2  -2   8    2.00    4.08
   2  -2  -8    9.16    3.42
   2   2   8   -3.13    6.40
   2  -2  -8    9.94    3.65
   2   2   8   -1.61    4.96
   2  -2  -8    3.98    5.76
  -2  -2   8    5.09    5.81
  -2  -2   8    0.32    4.95
  -2  -2  -9    7.65    4.03
   2  -2   9   -9.65    6.96
  -2   2   9   -7.94    5.07
   2  -2   9   -3.99    4.48
  -2  -2  -9   10.53    4.52
  -2  -2  -9    1.39    6.28
   2   2  -9   -2.86    6.60
   2  -2   9  -12.08    5.61
   2  -2  -9    0.08    6.18
  -2  -2   9   -0.86    6.96
  -2  -2   9  -11.93    5.41
  -2  -2   9   -7.81    4.22
  -2   2  -9    3.44    6.47
   2   2   9  -14.70    5.29
  -3   2   0  178.52    3.42
   3   2   0  182.24    3.52
   3   2   0  177.68    3.78
   3  -2   0  174.64    3.81
   3   2   0  183.41    4.43
   3  -2   0  179.90    3.90
  -3   2   0  176.12    3.89
   3   2   0  175.65    3.65
  -3  -2   0  176.56    3.90
  -3   2   0  166.82    3.70
   3  -2   0  178.74    4.39
  -3  -2   0  181.18    3.72
  -3  -2   0  183.55    3.46
  -3  -2   0  174.86    3.58
  -3   2   0  186.79    4.75
   3  -2   0  188.57    3.47
  -3  -2  -1  119.08    3.26
  -3  -2  -1  123.32    2.93
   3  -2   1  121.27    4.42
  -3   2   1  129.38    4.35
  -3  -2  -1  125.43    3.71
   3   2  -1  133.93    3.15
   3  -2   1  123.21    3.28
  -3  -2  -1  123.28    4.02
   3   2  -1  129.12    3.94
  -3   2   1  121.65    4.04
   3  -2   1  125.47    3.68
  -3  -2  -1  124.63    3.29
   3  -2   1  125.37    3.33
   3   2  -1  127.74    3.33
   3  -2  -1  125.51    2.95
  -3   2  -1  129.54    3.55
   3   2   1  125.17    3.38
  -3   2  -1  118.92    3.81
   3  -2  -1  117.22    4.14
   3  -2  -1  131.43    4.33
   3   2   1  131.15    3.03
   3   2   1  130.52    4.30
  -3   2  -1  128.08    4.73
   3  -2  -1  124.36    3.50
  -3   2   2   88.97    3.45
   3   2  -2   90.28    4.43
   3  -2   2   90.25    3.70
   3  -2   2   92.23    3.52
   3  -2   2   95.83    3.18
  -3  -2  -2   95.05    3.96
  -3  -2  -2   93.58    3.60
   3   2  -2   89.91    3.19
  -3  -2  -2   89.56    3.91
   3   2  -2   93.94    3.82
  -3  -2  -2   90.19    3.07
  -3   2   2   92.13    4.48
   3   2   2   88.01    4.04
  -3   2  -2   84.67    4.40
  -3   2  -2   85.42    3.33
   3   2   2   88.49    2.70
   3  -2  -2   85.68    4.16
   3  -2  -2   84.64    2.90
   3  -2  -2   84.92    2.57
   3  -2  -2   83.96    3.16
  -3   2  -2   87.03    2.97
   3   2   2   87.40    3.18
  -3  -2   2   84.50    3.21
   3  -2   3   25.05    2.56
   3   2  -3   23.72    3.74
   3  -2   3   24.94    3.23
  -3  -2  -3   21.13    2.34
  -3  -2  -3   22.26    2.75
   3  -2   3   25.03    2.96
  -3   2   3   23.04    3.04
  -3  -2  -3   21.77    3.37
   3   2  -3   24.79    3.15
  -3  -2  -3   26.86    2.94
  -3  -2   3   22.36    3.13
  -3  -2   3   21.67    2.59
   3   2   3   24.89    2.72
   3  -2  -3   23.03    3.47
   3  -2  -3   23.79    2.21
  -3   2  -3   20.88    3.74
  -3  -2   3   23.52    2.23
   3  -2  -3   22.12    1.94
  -3   2  -3   23.57    2.84
   3   2   3   23.29    2.16
   3  -2  -3   20.04    2.48
   3   2   3   25.79    3.49
   3   2  -4   63.28    5.56
  -3   2   4   67.81    2.99
   3  -2   4   66.48    4.25
  -3  -2  -4   64.80    3.45
   3  -2   4   66.66    4.88
  -3   2   4   67.14    4.64
  -3  -2  -4   62.92    4.11
   3  -2   4   67.20    3.75
  -3  -2  -4   63.15    5.30
   3   2  -4   62.75    4.54
  -3  -2  -4   67.81    4.54
  -3   2  -4   69.11    5.67
   3  -2  -4   65.39    3.48
  -3   2  -4   65.32    4.18
   3  -2  -4   67.98    2.97
   3   2   4   71.27    4.15
   3  -2  -4   71.25    3.89
  -3  -2   4   70.31    3.98
   3   2   4   64.42    3.32
  -3  -2   4   69.43    3.42
  -3  -2   4   65.83    4.64
   3  -2  -4   65.52    5.40
   3   2   4   67.25    4.94
  -3   2   5   33.62    4.73
   3  -2   5   32.80    3.68
  -3  -2  -5   32.78    5.70
   3   2  -5   30.01    5.52
  -3   2   5   36.87    4.22
  -3  -2  -5   34.11    3.44
  -3  -2  -5   31.99    3.94
   3  -2   5   38.53    5.02
   3  -2   5   32.29    4.17
  -3  -2  -5   36.05    4.48
   3   2   5   31.97    3.34
   3   2   5   30.19    4.70
   3  -2  -5   32.48    3.60
  -3  -2   5   34.69    3.74
   3  -2  -5   33.93    5.48
  -3  -2   5   36.43    4.17
  -3  -2   5   31.60    4.41
   3   2   5   39.83    4.23
   3  -2  -5   33.32    4.01
  -3   2  -5   37.80    5.89
   3  -2   6   29.69    4.37
  -3  -2  -6   36.85    6.58
   3  -2   6   33.33    5.06
  -3   2   6   35.87    3.86
  -3  -2  -6   31.33    4.57
  -3   2   6   35.83    5.87
   3  -2   6   31.78    5.89
   3   2  -6   35.07    6.89
  -3  -2  -6   37.33    5.25
  -3   2   6   36.18    4.74
  -3  -2   6   30.85    5.49
   3  -2  -6   34.33    4.29
   3  -2  -6   33.24    3.39
   3   2   6   35.96    5.00
   3   2   6   29.70    3.89
  -3  -2   6   30.22    3.90
  -3   2  -6   31.19    6.71
  -3   2  -6   30.34    4.43
   3  -2  -6   34.59    4.62
   3   2   6   28.31    5.65
   3  -2  -6   31.59    6.45
  -3  -2   6   41.84    5.06
   3  -2   7   19.74    6.16
  -3  -2  -7   26.29    4.87
  -3  -2  -7   24.47    6.38
  -3  -2  -7   25.21    4.35
   3  -2   7   18.07    4.32
   3  -2   7   14.72    4.97
  -3   2   7   23.47    6.17
  -3   2   7   17.12    3.64
  -3   2   7   19.22    4.58
   3   2  -7   19.49    6.58
  -3  -2   7   20.26    4.98
   3   2   7   15.68    5.82
  -3   2  -7   18.93    6.20
   3  -2  -7   21.39    3.76
   3  -2  -7   20.81    3.08
   3   2   7   13.99    3.67
  -3  -2   7   14.95    5.30
  -3  -2   7   16.10    3.78
   3   2   7   20.85    4.98
   3  -2  -7   25.34    3.99
   3  -2  -7   24.65    6.49
  -3   2   8    7.97    6.65
   3  -2   8    9.29    4.51
   3   2  -8   15.32    6.98
  -3  -2  -8   14.51    6.68
  -3  -2  -8   21.88    4.83
   3  -2   8    6.63    5.70
   3  -2   8    6.06    6.71
  -3   2   8   13.87    4.16
  -3  -2  -8   16.70    4.26
  -3   2   8    6.94    4.93
  -3  -2   8   13.02    5.34
   3  -2  -8   18.52    3.52
  -3  -2   8    8.61    6.33
  -3   2  -8   21.12    7.10
   3   2   8   12.81    3.98
   3  -2  -8   15.89    3.67
   3  -2  -8   14.01    3.92
   3   2   8    7.15    5.33
  -3  -2   8    4.25    3.91
   3  -2  -8   13.07    6.73
   3   2   8    7.90    6.89
   3   2  -9    9.68    7.62
  -3   2   9   -6.33    5.16
  -3  -2  -9    9.67    3.90
   3  -2   9   -0.12    4.59
   3  -2   9  -12.02    5.62
  -3  -2  -9   11.93    4.57
  -3   2   9   -6.86    7.06
  -3  -2  -9    7.04    6.40
   3  -2   9   -9.60    7.23
  -3  -2   9    4.00    5.92
  -3   2  -9    4.27    6.55
   3   2   9  -15.23    7.62
  -3  -2   9   -4.51    4.50
  -3  -2   9   -4.85    6.60
   3   2   9    1.71    5.90
   3  -2  -9    5.71    6.51
   4  -2   0  386.94    6.51
  -4   2   0  358.73    6.43
   4   2   0  398.08    6.62
  -4   2   0  389.57    7.91
   4   2   0  382.40    7.67
   4  -2   0  371.78    7.04
   4  -2   0  379.30    6.61
   4   2   0  355.02    6.85
  -4   2   0  380.43    7.09
   4  -2   0  357.56    7.40
  -4  -2   0  374.95    7.08
   4   2   0  380.02    6.78
  -4   2   1  100.05    2.44
  -4  -2  -1  104.22    3.60
   4   2  -1  105.99    2.95
  -4   2   1  107.65    4.06
   4   2  -1  101.88    3.15
   4  -2   1  107.49    3.18
   4   2  -1  103.04    3.72
  -4   2   1  104.18    3.49
   4  -2   1  102.40    3.54
   4  -2   1   99.90    4.18
  -4  -2  -1  106.56    3.12
  -4  -2  -1  105.80    3.93
   4  -2  -1  107.73    2.60
  -4   2  -1  103.71    4.57
  -4   2  -1  105.94    3.56
   4  -2  -1  101.44    3.41
   4   2   1  111.13    4.23
   4   2   1  110.33    2.98
   4   2   1  108.89    3.32
   4   2  -2  157.62    4.19
  -4   2   2  159.86    5.69
  -4  -2  -2  166.26    4.68
  -4  -2  -2  160.03    4.02
   4  -2   2  161.66    4.63
   4  -2   2  165.92    4.23
   4   2  -2  154.95    5.56
  -4  -2  -2  162.91    5.10
   4  -2   2  154.88    4.79
   4   2  -2  158.87    4.87
   4  -2  -2  153.30    4.26
  -4   2  -2  151.96    5.52
   4   2   2  159.25    4.28
  -4   2  -2  157.44    4.53
   4  -2  -2  159.56    5.47
   4   2   2  155.71    5.14
   4  -2  -2  159.44    3.60
   4   2   2  162.01    3.84
   4   2  -3  128.24    6.04
   4  -2   3  128.71    4.20
   4  -2   3  133.16    4.59
   4  -2   3  126.05    5.17
  -4  -2  -3  127.83    3.99
  -4   2   3  127.17    4.78
   4   2  -3  130.48    5.10
  -4   2   3  131.93    6.10
  -4  -2  -3  124.52    4.56
  -4  -2  -3  127.61    5.46
  -4  -2  -3  123.89    5.01
   4   2   3  133.08    3.85
  -4   2  -3  130.32    5.93
   4   2   3  129.84    5.46
  -4  -2   3  135.54    4.35
  -4   2  -3  126.33    4.21
   4  -2  -3  127.93    3.92
   4   2   3  131.34    4.39
   4  -2  -3  126.79    4.20
   4  -2  -3  129.77    3.44
  -4  -2   3  132.61    5.11
  -4   2  -3  129.31    4.64
   4  -2  -3  128.19    5.92
  -4  -2  -4   48.23    4.95
  -4  -2  -4   48.24    4.45
   4  -2   4   50.04    3.57
   4   2  -4   49.49    5.37
  -4   2   4   50.86    3.44
  -4  -2  -4   44.94    3.96
   4  -2   4   48.97    4.71
  -4   2   4   52.29    4.47
  -4  -2  -4   50.82    3.22
   4   2  -4   50.18    4.42
   4  -2   4   48.80    3.97
  -4  -2   4   50.97    3.82
   4   2   4   47.86    4.90
   4   2   4   49.81    3.96
  -4   2  -4   48.12    4.27
   4   2   4   47.33    3.22
   4  -2  -4   51.08    3.19
  -4  -2   4   48.94    4.48
   4  -2  -4   50.06    2.70
  -4   2  -4   50.10    5.36
   4  -2  -4   48.95    5.08
  -4  -2   4   48.84    3.28
   4  -2  -4   49.34    3.56
  -4   2   5   47.51    4.42
  -4   2   5   42.11    3.50
   4   2  -5   45.46    6.50
   4  -2   5   46.79    4.32
   4  -2   5   46.91    4.97
  -4  -2  -5   43.76    4.77
   4  -2   5   47.76    5.88
   4   2  -5   45.66    5.27
  -4  -2  -5   47.08    6.13
  -4  -2  -5   44.27    5.42
  -4  -2  -5   51.52    3.94
  -4   2   5   44.36    5.43
  -4  -2   5   49.80    4.70
   4   2   5   46.19    3.91
   4  -2  -5   44.99    6.10
  -4   2  -5   42.46    4.99
  -4   2  -5   43.54    6.37
   4  -2  -5   47.97    3.77
   4   2   5   45.33    4.92
   4   2   5   45.51    5.85
  -4  -2   5   43.94    5.25
   4  -2  -5   45.35    4.20
  -4  -2   5   48.89    3.98
  -4   2   6   22.23    3.41
  -4   2   6   21.63    5.47
  -4  -2  -6   20.23    4.98
  -4  -2  -6   18.48    4.24
  -4   2   6   21.61    4.36
   4  -2   6   16.37    4.05
  -4  -2  -6   26.64    3.92
  -4  -2  -6   19.02    5.84
   4  -2   6   13.43    4.44
   4  -2   6   19.10    5.51
   4   2  -6   16.45    6.19
  -4  -2   6   17.40    3.61
   4  -2  -6   21.25    3.50
   4  -2  -6   17.21    3.66
   4   2   6   18.88    3.68
   4  -2  -6   17.57    5.82
  -4  -2   6   19.46    5.06
  -4   2  -6   19.37    6.14
   4   2   6   17.37    5.40
   4   2   6   20.05    4.71
  -4   2  -6   18.21    4.37
  -4  -2   6   17.09    4.63
  -4   2   7    8.62    3.28
  -4   2   7    8.46    4.43
  -4  -2  -7   12.66    3.31
   4  -2   7   10.60    4.65
  -4  -2  -7   16.98    4.74
  -4   2   7   14.87    5.76
   4   2  -7   17.17    6.53
  -4  -2  -7   13.90    3.93
  -4  -2  -7   17.16    5.96
   4  -2   7    7.62    3.98
   4  -2   7    6.48    5.69
  -4  -2   7   13.04    5.13
   4   2   7    8.07    5.65
  -4   2  -7   13.48    5.85
   4  -2  -7   13.34    3.53
   4  -2  -7   13.94    3.28
  -4  -2   7   12.23    3.59
   4   2   7   13.37    3.63
   4   2   7    6.48    4.53
   4  -2  -7    7.97    5.72
  -4  -2   7   12.81    4.77
   4  -2   8    1.78    4.12
  -4  -2  -8    8.69    6.23
   4   2  -8    7.55    6.65
   4  -2   8    0.93    5.20
  -4  -2  -8   13.49    4.78
  -4   2   8    1.34    6.40
   4  -2   8   -3.97    6.58
  -4   2   8   -2.01    4.67
  -4  -2  -8    8.23    4.06
  -4   2   8    4.89    4.12
   4   2   8    0.28    4.79
   4  -2  -8    7.11    6.46
   4  -2  -8   10.50    3.74
  -4  -2   8    4.16    3.88
  -4  -2   8    6.56    5.91
  -4   2  -8   12.49    6.54
  -4  -2   8   -0.52    4.93
   4   2   8   -2.90    6.40
   4  -2  -8    7.26    3.29
   4   2   8    0.70    3.64
   4  -2   9   -2.35    4.60
  -4  -2  -9    2.30    6.41
   4  -2   9  -10.54    5.64
  -4  -2  -9    8.83    4.60
   4  -2   9  -17.53    7.35
  -4  -2  -9   14.29    4.27
  -4   2   9   -5.99    7.06
   4   2  -9    4.81    7.03
   4   2   9    1.65    4.57
   4   2   9   -0.49    5.29
  -4  -2   9   -2.27    6.84
  -4  -2   9   -8.59    4.28
   4   2   9  -11.10    7.56
  -4  -2   9   -7.43    5.24
  -4   2  -9    5.00    6.41
   4  -2  -9    6.47    6.82
   5   2   0   56.34    3.45
   5  -2   0   62.37    2.63
   5   2   0   63.45    2.83
  -5   2   0   61.82    2.92
   5   2   0   65.74    2.48
  -5  -2   0   63.21    3.12
  -5   2   0   67.29    3.63
   5  -2   0   66.74    2.46
   5  -2   1   67.25    4.38
  -5  -2  -1   65.54    3.57
  -5  -2  -1   67.81    3.19
  -5   2   1   65.26    3.46
   5  -2   1   66.19    3.11
   5   2  -1   65.39    2.74
   5   2  -1   61.80    3.27
   5   2  -1   69.77    2.53
   5  -2   1   70.33    2.70
  -5   2   1   65.71    3.01
   5   2   1   68.59    3.73
  -5   2  -1   65.85    4.06
  -5   2  -1   65.96    3.19
   5  -2  -1   66.63    2.25
   5   2   1   68.70    2.56
   5  -2  -1   64.26    2.90
   5  -2  -1   67.05    2.45
   5   2   1   68.83    2.97
  -5   2   2   26.45    3.29
   5  -2   2   23.56    2.39
   5   2  -2   22.35    2.78
   5  -2   2   24.32    2.96
  -5  -2  -2   25.62    2.46
   5  -2   2   23.65    2.73
  -5  -2  -2   25.01    2.88
   5   2  -2   23.02    3.12
   5   2  -2   24.16    2.31
  -5  -2  -2   23.75    3.22
   5   2   2   26.90    3.17
   5  -2  -2   22.76    2.40
   5   2   2   22.18    2.06
   5  -2  -2   19.54    3.05
  -5   2  -2   21.41    3.31
  -5   2  -2   26.33    2.94
   5   2   2   25.23    2.54
  -5  -2  -3   19.62    3.02
  -5   2   3   20.32    3.73
  -5  -2  -3   18.79    2.51
   5   2  -3   19.02    3.61
   5   2  -3   23.23    2.66
   5   2  -3   17.74    2.88
   5  -2   3   15.57    2.70
   5  -2   3   20.44    2.53
   5  -2   3   19.71    3.12
  -5  -2  -3   18.01    3.14
  -5  -2  -3   15.43    2.72
  -5   2   3   17.90    2.81
  -5   2  -3   21.54    3.78
   5  -2  -3   20.20    2.89
  -5   2  -3   21.56    2.64
   5  -2  -3   19.32    2.08
   5   2   3   20.65    2.23
  -5  -2   3   22.73    2.68
  -5  -2   3   19.70    2.96
  -5   2  -3   21.15    2.97
   5   2   3   22.61    2.71
   5  -2  -3   19.64    2.67
   5  -2  -3   19.82    3.48
   5   2   3   20.41    3.35
   5   2  -4   37.30    4.32
   5  -2   4   41.42    3.60
  -5   2   4   40.13    4.25
  -5  -2  -4   37.94    4.04
  -5  -2  -4   39.63    4.69
   5  -2   4   38.90    4.08
   5   2  -4   35.01    5.19
  -5   2   4   43.61    2.77
  -5  -2  -4   38.03    3.35
  -5  -2  -4   38.67    4.77
   5  -2   4   43.39    4.91
   5   2   4   42.40    4.99
   5  -2  -4   41.32    5.12
  -5  -2   4   37.70    3.71
   5  -2  -4   37.09    3.40
   5  -2  -4   40.57    2.63
  -5  -2   4   37.75    4.47
  -5  -2   4   39.51    3.07
  -5   2  -4   45.46    4.43
  -5   2  -4   39.92    5.24
   5   2   4   38.34    3.21
  -5   2  -4   37.96    3.83
   5   2   4   42.60    4.10
   5  -2  -4   38.93    3.07
   5   2  -5   54.41    6.77
  -5   2   5   50.43    5.71
   5  -2   5   50.41    6.24
   5   2  -5   43.77    5.43
  -5  -2  -5   48.26    5.46
  -5  -2  -5   50.43    4.11
  -5  -2  -5   48.25    6.20
  -5   2   5   49.69    4.47
  -5   2   5   47.84    3.55
  -5  -2  -5   44.11    4.96
   5  -2   5   43.88    4.43
   5  -2   5   49.09    5.18
  -5   2  -5   42.49    4.69
  -5  -2   5   45.55    5.49
   5  -2  -5   45.38    6.35
   5   2   5   42.64    4.06
   5  -2  -5   44.07    4.22
   5   2   5   44.07    5.05
  -5  -2   5   49.52    4.74
   5   2   5   46.97    6.26
  -5   2  -5   42.60    5.40
  -5  -2   5   43.70    3.98
  -5   2  -5   41.38    6.38
  -5  -2  -6   29.52    4.82
  -5   2   6   32.69    3.65
  -5   2   6   35.94    4.62
   5  -2   6   34.88    6.31
  -5  -2  -6   33.08    5.70
  -5  -2  -6   36.22    4.12
  -5   2   6   36.57    5.99
   5  -2   6   30.11    4.50
  -5  -2  -6   38.48    6.65
   5  -2   6   35.39    5.18
   5   2  -6   33.58    7.11
  -5   2  -6   31.38    6.73
   5  -2  -6   31.98    4.11
  -5  -2   6   29.67    4.97
   5   2   6   30.23    4.06
  -5  -2   6   35.01    5.73
   5  -2  -6   34.08    6.81
   5   2   6   32.76    5.07
  -5  -2   6   29.44    3.98
  -5   2  -6   34.40    5.18
   5   2   6   27.49    6.05
   5  -2  -6   31.18    4.08
  -5  -2  -7   21.69    4.44
  -5   2   7   19.61    3.60
  -5  -2  -7   31.34    6.76
   5  -2   7   20.46    5.21
  -5   2   7   24.85    4.77
   5  -2   7   26.45    4.53
   5   2  -7   27.72    7.13
  -5   2   7   30.12    6.30
   5  -2   7   23.17    6.65
  -5  -2  -7   29.86    5.42
   5   2   7   28.85    5.23
  -5  -2   7   20.19    3.77
  -5  -2   7   30.32    6.21
   5  -2  -7   31.40    4.15
   5  -2  -7   29.77    3.77
   5  -2  -7   25.56    6.92
   5   2   7   29.10    4.07
   5   2   7   22.13    6.45
   5  -2  -7   29.49    3.26
  -5   2  -7   26.93    4.77
  -5  -2   7   26.74    5.07
  -5   2  -7   33.10    7.09
  -5  -2  -8   25.38    4.51
   5   2  -8   29.94    8.11
  -5  -2  -8   33.66    5.81
   5  -2   8    8.73    7.27
   5  -2   8   24.09    4.83
   5  -2   8   14.33    5.91
  -5   2   8   17.56    5.23
  -5  -2  -8   27.81    7.21
  -5   2   8   20.38    7.27
  -5   2  -8   25.41    4.89
  -5  -2   8   18.96    4.31
   5   2   8   17.60    7.33
   5  -2  -8   23.87    3.99
  -5   2  -8   30.26    7.61
  -5  -2   8   23.94    6.86
  -5  -2   8   18.36    5.80
   5  -2  -8   23.14    4.22
   5  -2  -8   20.94    7.47
   5   2   8   25.40    5.71
   5   2   8   19.15    4.26
  -6   2   0   29.43    2.72
   6   2   0   29.92    2.12
   6   2   0   27.48    2.53
   6   2   0   29.13    3.09
   6  -2   0   29.13    2.37
   6  -2   0   29.90    2.10
  -6  -2   0   27.77    2.80
   6  -2   1   81.65    3.01
  -6   2   1   79.91    3.85
  -6   2   1   84.53    3.43
   6   2  -1   82.07    2.89
  -6  -2  -1   83.32    3.91
   6   2  -1   79.62    3.73
   6   2  -1   76.16    3.07
   6  -2   1   80.79    3.31
  -6  -2  -1   77.60    3.52
   6   2   1   79.86    4.11
  -6   2  -1   80.46    3.56
   6   2   1   81.95    3.25
   6   2   1   84.64    2.91
   6  -2  -1   79.30    2.60
   6  -2  -1   76.02    3.27
   6  -2  -1   79.18    2.78
  -6  -2   1   79.06    3.13
  -6  -2  -2   86.84    4.33
  -6  -2  -2   83.45    4.02
   6   2  -2   84.43    3.97
  -6   2   2   85.71    3.64
  -6   2   2   85.64    4.56
   6   2  -2   83.41    3.13
   6  -2   2   86.25    4.04
   6   2  -2   83.03    3.38
   6   2  -2   81.03    4.32
  -6  -2  -2   87.08    3.39
   6  -2   2   82.96    3.84
   6  -2   2   84.78    3.43
   6   2   2   84.86    3.13
  -6   2  -2   88.88    4.10
   6   2   2   86.02    4.48
   6  -2  -2   85.35    4.42
  -6   2  -2   85.24    4.54
   6   2   2   87.80    3.70
   6  -2  -2   84.75    3.54
   6  -2  -2   87.77    2.75
   6   2  -3   49.20    4.66
  -6  -2  -3   42.84    3.98
   6  -2   3   49.37    3.34
  -6   2   3   49.00    4.75
  -6  -2  -3   50.80    4.51
   6  -2   3   46.25    3.75
   6  -2   3   49.99    4.47
  -6  -2  -3   43.65    3.24
   6   2  -3   49.68    3.98
   6   2  -3   49.46    3.42
  -6   2   3   46.73    3.80
   6  -2  -3   48.55    3.84
  -6   2  -3   48.90    4.71
  -6   2  -3   48.21    4.15
   6   2   3   52.19    3.76
  -6   2  -3   53.78    3.75
   6   2   3   46.68    4.66
   6   2   3   47.80    3.10
   6  -2  -3   46.09    3.31
   6  -2  -3   49.29    4.70
  -6   2   4   15.69    4.48
  -6  -2  -4   13.73    3.79
   6   2  -4   11.52    4.21
  -6  -2  -4   15.34    2.80
  -6  -2  -4   13.57    3.31
   6  -2   4   14.86    3.87
   6  -2   4   14.66    2.91
   6   2  -4   12.91    3.40
  -6   2   4   14.53    3.40
  -6  -2  -4   13.82    3.66
   6  -2   4   13.56    3.18
  -6   2  -4   17.57    3.66
   6   2   4   10.90    3.82
   6  -2  -4   17.82    2.81
  -6  -2   4   13.46    3.01
  -6  -2   4   14.63    3.48
   6   2   4   19.19    3.36
  -6   2  -4   12.61    3.15
   6   2   4   16.93    2.74
  -6   2  -4   11.87    4.06
   6  -2  -4   15.67    4.25
  -6   2   5   13.55    5.16
  -6  -2  -5   12.07    3.88
   6  -2   5   13.61    3.44
  -6  -2  -5   10.68    3.38
  -6  -2  -5   10.11    4.58
   6  -2   5   15.27    4.88
  -6   2   5   14.12    4.31
   6   2  -5   12.32    5.31
  -6  -2  -5   13.56    4.49
   6  -2   5   15.13    3.90
   6   2  -5   11.93    4.06
  -6   2   5   13.88    2.75
   6   2   5   16.61    4.79
  -6   2  -5   14.54    5.02
  -6  -2   5   14.05    3.77
   6  -2  -5   14.00    2.88
   6  -2  -5    8.59    4.73
   6   2   5   10.73    3.11
  -6  -2   5   12.19    3.06
   6  -2  -5   11.53    3.04
  -6   2  -5   14.60    4.29
  -6  -2   5    9.94    3.94
   6   2   5   16.20    4.00
  -6   2  -5   10.85    3.65
   6  -2   6   13.86    5.64
  -6  -2  -6   15.58    4.56
   6  -2   6   14.80    4.78
  -6   2   6   20.43    5.36
  -6   2   6   13.07    3.16
  -6  -2  -6   14.97    3.85
   6   2  -6   18.16    6.59
  -6  -2  -6   16.20    5.62
  -6  -2  -6   18.33    5.44
   6  -2   6   15.47    4.09
   6  -2  -6   15.80    3.59
  -6   2  -6   15.77    6.05
  -6   2  -6   13.04    4.16
  -6  -2   6   10.52    3.35
   6   2   6   24.72    4.82
   6  -2  -6   15.97    3.31
  -6  -2   6   16.63    4.51
   6  -2  -6   13.95    6.06
   6   2   6   14.70    3.67
  -6   2  -6   16.46    4.81
  -6  -2   6   18.30    4.93
   6   2   6   17.14    5.71
  -6   2   7    6.44    5.62
  -6  -2  -7   14.81    3.55
   6  -2   7    9.57    3.95
  -6  -2  -7   16.76    4.27
  -6  -2  -7   15.37    5.08
   6  -2   7    3.32    4.55
  -6  -2  -7    7.71    5.43
  -6   2   7   10.32    4.38
   6  -2   7    4.29    6.07
   6   2  -7   14.42    6.46
  -6   2  -7   17.13    4.75
   6   2   7   15.46    4.85
   6   2   7   14.23    3.80
  -6  -2   7   16.09    5.57
  -6  -2   7   11.11    3.60
  -6  -2   7   11.56    4.71
   6  -2  -7   18.98    6.60
   6  -2  -7   14.47    2.91
  -6   2  -7   11.03    6.05
  -6   2  -7   12.43    3.90
   6  -2  -7   11.31    3.46
   6   2   7    7.20    5.96
   6  -2  -7   16.97    3.38
   6  -2   8    5.99    4.17
   6  -2   8  -10.88    6.69
   6  -2   8    4.67    5.35
  -6   2   8   -4.92    5.99
  -6  -2  -8    8.15    4.90
  -6   2   8   15.57    6.15
   6   2  -8    5.76    6.68
  -6  -2  -8   -0.03    5.31
  -6  -2  -8    9.46    4.13
  -6   2   8    0.72    4.58
   6   2   8    6.63    5.04
  -6  -2   8   -1.44    3.45
   6  -2  -8    3.30    4.50
  -6  -2   8    1.37    5.06
   6  -2  -8    4.22    3.45
  -6   2  -8   10.61    4.41
  -6  -2   8   -0.47    5.58
   6  -2  -8    0.98    6.27
  -6   2  -8    9.76    6.42
   6   2   8   -2.66    6.47
   6   2   8    6.83    4.00
   7  -2   0   10.66    1.71
  -7   2   0   13.01    2.12
   7   2   0   12.26    1.79
   7   2   0   10.08    2.35
  -7  -2   0   11.43    2.22
   7   2   0   15.86    2.17
   7  -2   0   13.02    1.95
   7   2  -1   26.14    3.15
   7   2  -1   27.19    2.59
   7   2  -1   25.79    2.18
   7  -2   1   25.70    2.36
   7  -2   1   30.69    2.94
  -7   2   1   26.89    2.77
  -7  -2  -1   26.44    2.96
  -7  -2  -1   27.79    3.30
   7   2   1   30.32    2.31
  -7  -2   1   29.59    2.68
  -7   2  -1   28.33    3.07
   7  -2  -1   30.12    2.34
   7  -2  -1   30.32    2.14
   7  -2  -1   29.76    2.76
   7   2   1   30.36    2.73
   7   2   1   30.22    3.75
   7   2  -2   31.49    2.52
  -7  -2  -2   34.92    3.51
   7  -2   2   36.27    3.76
  -7  -2  -2   30.83    2.82
  -7   2   2   33.16    3.17
   7   2  -2   31.67    3.26
  -7  -2  -2   33.34    3.86
  -7   2   2   32.09    3.68
   7   2  -2   34.78    2.89
   7  -2   2   27.13    2.82
   7  -2   2   31.80    3.39
   7  -2  -2   31.25    3.01
   7  -2  -2   32.80    3.65
   7  -2  -2   31.33    2.30
  -7   2  -2   31.52    3.60
   7   2   2   28.54    2.66
   7   2   2   30.14    4.18
   7  -2  -2   36.03    2.65
   7   2   2   33.44    3.32
   7   2  -3   15.21    3.12
   7  -2   3   15.95    2.58
   7   2  -3   14.57    3.69
  -7  -2  -3   17.92    3.40
  -7   2   3   16.92    2.95
  -7  -2  -3   14.66    2.93
   7  -2   3   23.28    3.56
   7   2  -3   16.01    2.57
   7  -2   3   15.36    2.94
  -7  -2  -3   18.20    2.78
  -7   2   3   19.48    3.85
   7  -2  -3   17.91    3.11
   7  -2  -3   17.67    3.69
   7  -2  -3   19.10    2.53
  -7   2  -3   20.80    3.33
   7   2   3   16.76    2.82
  -7   2  -3   17.61    2.94
  -7   2  -3   17.48    3.78
   7   2   3   14.20    2.33
   7  -2  -3   19.30    2.67
   7   2   3   14.18    3.30
   7   2  -4   38.48    5.74
  -7   2   4   37.53    3.76
  -7  -2  -4   35.25    3.82
   7  -2   4   36.86    3.95
  -7   2   4   33.78    4.60
   7  -2   4   33.35    3.90
  -7  -2  -4   33.42    4.63
   7   2  -4   38.08    4.10
  -7  -2  -4   38.05    4.71
   7   2  -4   34.24    4.79
  -7   2   4   39.53    5.69
   7  -2   4   39.89    5.58
  -7  -2  -4   39.92    4.86
  -7   2  -4   39.89    5.52
   7   2   4   40.60    4.62
   7  -2  -4   40.47    5.55
  -7  -2   4   36.77    4.77
   7  -2  -4   40.81    3.89
  -7  -2   4   36.20    4.05
  -7   2  -4   38.22    4.62
  -7   2  -4   40.59    3.62
   7   2   4   36.87    3.74
   7  -2  -4   34.67    4.72
  -7   2  -4   44.16    5.30
   7   2   4   41.44    5.85
  -7  -2  -5   22.91    5.20
  -7   2   5   21.50    5.85
  -7   2   5   27.36    4.74
  -7   2   5   25.81    3.23
  -7  -2  -5   23.37    4.47
   7  -2   5   28.57    5.72
  -7  -2  -5   23.61    5.37
   7   2  -5   27.87    5.24
  -7   2   5   28.44    4.05
   7  -2   5   24.28    3.89
   7   2  -5   28.68    6.17
   7  -2   5   20.34    4.30
  -7  -2  -5   22.94    3.77
  -7   2  -5   27.11    5.74
   7  -2  -5   24.97    3.56
   7   2   5   32.79    5.75
  -7  -2   5   28.27    5.21
   7  -2  -5   26.36    5.77
  -7   2  -5   24.35    4.38
  -7  -2   5   32.25    4.37
   7   2   5   24.76    3.62
  -7   2  -5   27.90    5.12
   7   2   5   24.43    4.45
  -7  -2   5   20.23    3.32
  -7   2   6   35.90    3.89
  -7   2   6   38.41    4.65
  -7  -2  -6   36.31    6.50
  -7  -2  -6   34.80    4.28
   7  -2   6   39.60    4.53
  -7   2   6   37.77    6.13
   7  -2   6   29.19    4.90
   7   2  -6   40.59    7.33
  -7   2   6   39.37    7.07
  -7  -2  -6   31.85    4.99
  -7  -2  -6   44.84    6.25
   7  -2   6   31.99    6.57
   7   2  -6   29.52    5.87
  -7  -2   6   33.47    4.08
   7   2   6   42.57    5.26
  -7   2  -6   37.50    5.58
  -7   2  -6   34.59    4.77
  -7  -2   6   33.88    5.83
   7   2   6   37.08    6.46
   7  -2  -6   39.52    7.01
   7   2   6   36.27    4.15
  -7  -2   6   40.28    5.05
  -7   2  -6   38.67    6.96
   7  -2  -6   35.89    4.36
   7   2  -7   35.80    7.61
   7  -2   7   26.99    4.53
  -7  -2  -7   25.94    4.96
   7  -2   7   13.63    6.67
  -7  -2  -7   28.72    6.00
   7  -2   7   24.53    5.14
  -7   2   7   20.46    3.63
  -7   2   7   23.12    6.27
  -7  -2  -7   31.78    4.19
  -7  -2  -7   29.06    6.29
  -7   2   7   28.02    6.89
   7  -2  -7   26.68    3.39
   7  -2  -7   30.99    7.40
  -7  -2   7   29.06    5.18
  -7   2  -7   35.47    5.51
   7   2   7   25.92    5.23
  -7  -2   7   19.49    3.89
  -7   2  -7   27.88    4.51
   7  -2  -7   27.15    4.04
   7   2   7   23.06    6.91
   7   2   7   25.23    4.14
  -7   2  -7   31.54    7.10
  -7  -2   7   30.43    6.18
  -7   2   8   19.31    6.70
  -7  -2  -8   27.44    5.86
  -7  -2  -8   20.61    6.58
   7  -2   8   22.42    4.76
   7  -2   8    4.03    7.46
  -7   2   8   12.13    5.04
  -7  -2  -8   18.75    4.61
   7   2  -8   19.93    7.56
  -7   2   8   15.90    7.15
   7  -2   8   17.15    5.59
   7   2   8   17.66    5.55
   7   2   8   17.86    4.24
  -7  -2   8   16.39    6.76
  -7   2  -8   26.82    5.32
   7  -2  -8   21.64    7.28
  -7   2  -8   21.53    7.11
  -7  -2   8    9.73    3.88
  -7  -2   8   15.41    5.33
   7   2   8   15.72    7.35
   8  -2   0   57.06    2.85
  -8   2   0   55.92    3.64
   8   2   0   53.93    2.88
   8   2   0   58.10    4.08
   8   2   0   57.59    3.38
   8  -2   0   55.21    3.17
  -8  -2   0   59.87    3.82
   8  -2   1    3.91    1.85
   8   2  -1    6.45    1.83
   8   2  -1    1.49    1.96
   8   2  -1    6.76    2.54
  -8  -2  -1    7.58    2.46
  -8   2   1    6.92    2.25
  -8  -2  -1    6.47    2.65
   8  -2   1    6.63    2.35
   8  -2  -1    9.07    2.05
   8  -2  -1    8.17    1.84
   8   2   1    7.77    3.06
   8  -2  -1    6.53    2.11
  -8  -2   1    6.58    2.19
  -8   2  -1    7.93    2.47
   8   2   1    7.83    2.19
   8   2   1    6.21    1.86
   8  -2   2    9.79    2.32
   8   2  -2    7.45    2.57
  -8  -2  -2    9.55    3.12
   8  -2   2   10.98    2.71
  -8  -2  -2    6.21    2.72
   8   2  -2    9.92    2.31
  -8   2   2    9.82    2.44
  -8   2   2   10.85    2.92
   8   2  -2    8.70    2.03
   8  -2  -2    9.11    2.39
   8  -2  -2   10.25    1.93
   8  -2  -2    9.98    2.10
  -8   2  -2   11.47    2.87
   8   2   2   10.54    2.48
   8   2   2   12.54    3.27
   8   2   2   10.07    2.17
   8   2  -3   15.62    3.85
   8   2  -3   15.71    3.29
  -8   2   3   16.98    3.07
  -8   2   3   17.70    4.02
  -8  -2  -3   17.10    3.72
   8   2  -3   16.54    2.93
   8  -2   3   17.25    3.27
  -8  -2  -3   19.90    3.07
  -8   2   3   19.03    3.01
   8  -2   3   19.99    3.74
  -8  -2  -3   13.51    3.39
   8  -2   3   19.25    2.88
   8   2   3   19.47    3.98
   8  -2  -3   18.50    2.43
   8  -2  -3   18.29    3.95
   8   2   3   19.98    3.14
   8  -2  -3   18.55    3.27
   8  -2  -3   18.05    2.89
  -8   2  -3   20.09    3.57
   8   2   3   16.45    2.55
  -8   2  -3   17.73    3.26
  -8   2  -3   15.85    3.89
  -8   2   4   14.45    3.09
   8   2  -4   14.82    3.59
  -8   2   4   15.45    3.84
   8   2  -4   15.21    4.88
   8  -2   4   12.54    3.68
   8   2  -4   13.65    3.96
  -8  -2  -4   19.24    4.06
   8  -2   4   14.96    4.57
   8  -2   4    9.27    3.15
  -8  -2  -4   11.27    3.37
  -8   2   4   13.23    4.78
  -8  -2  -4   10.81    4.52
   8   2   4   22.17    4.92
  -8  -2   4   15.08    3.88
  -8   2  -4   15.23    3.89
   8  -2  -4   16.32    4.67
  -8   2  -4   13.45    4.45
   8   2   4   14.67    3.07
   8  -2  -4   18.34    3.40
   8   2   4   11.16    3.68
   8  -2  -4   17.03    3.29
   8  -2  -4   20.40    4.00
  -8   2  -4   14.61    4.39
  -8  -2   4   16.38    3.45
   8  -2   5   -0.53    3.26
   8  -2   5   -0.14    5.09
   8   2  -5    2.22    4.34
  -8   2   5    6.83    4.33
  -8  -2  -5    6.22    5.18
  -8  -2  -5    3.72    3.55
  -8  -2  -5    1.27    4.15
   8  -2   5    0.60    3.71
  -8   2   5   -1.44    4.88
   8   2  -5    2.23    5.16
  -8  -2  -5    4.75    4.42
  -8   2  -5    2.25    4.77
  -8   2  -5    3.77    4.08
   8  -2  -5    4.28    3.18
  -8  -2   5   -3.43    3.61
  -8  -2   5    2.12    4.36
   8   2   5    3.85    5.03
   8  -2  -5    2.21    4.98
   8   2   5   -1.01    3.85
   8   2   5    6.28    3.32
  -8   2  -5   -0.45    4.63
   8  -2   6    5.58    3.63
  -8   2   6   11.96    5.55
   8  -2   6    5.63    4.08
  -8  -2  -6    3.91    4.68
   8  -2   6   -1.55    5.22
  -8   2   6   14.25    3.71
  -8  -2  -6    7.18    4.12
   8   2  -6    8.15    4.89
  -8   2   6    6.36    4.80
  -8  -2  -6    5.85    3.37
  -8   2   6    9.59    2.86
  -8  -2  -6   13.15    5.25
   8   2  -6   11.57    5.76
  -8   2  -6    8.50    5.14
   8  -2  -6    4.76    3.16
  -8  -2   6    8.24    4.02
  -8  -2   6   11.53    3.30
   8   2   6    4.43    3.29
   8  -2  -6    7.85    5.43
  -8  -2   6    5.33    4.71
   8   2   6    4.62    4.13
   8   2   6    5.97    5.33
  -8   2  -6    7.42    4.94
  -8   2  -6    8.31    3.93
  -8  -2  -7    9.33    4.52
   8  -2   7   -1.57    6.15
   8  -2   7    9.84    4.07
   8   2  -7    4.83    6.24
  -8   2   7    2.93    3.06
  -8   2   7    8.14    5.86
  -8  -2  -7    5.37    5.09
  -8  -2  -7   11.80    5.61
   8  -2   7    0.35    4.55
  -8   2   7    3.97    5.42
  -8  -2  -7    3.32    3.58
  -8   2  -7    2.32    5.54
  -8  -2   7   -0.59    3.06
   8   2   7    1.75    3.43
  -8  -2   7    3.13    5.08
   8   2   7    0.59    6.11
   8  -2  -7    2.37    3.19
  -8   2  -7    7.57    4.97
   8  -2  -7    3.66    5.90
  -8   2  -7    3.65    3.90
   8   2   7    5.47    4.56
  -8  -2   7    8.77    4.63
  -8  -2  -8    3.84    5.52
   8  -2   8   -8.66    6.67
  -8   2   8    8.62    6.07
  -8   2   8   -4.31    5.92
   8  -2   8    1.87    4.12
  -8  -2  -8    6.91    4.12
  -8  -2  -8   10.19    5.38
   8  -2   8    1.92    4.95
   8   2  -8    7.40    6.81
  -8  -2   8    0.01    3.65
   8   2   8   -2.26    3.47
  -8   2  -8    4.31    5.84
  -8  -2   8   -2.13    4.89
  -8   2  -8   13.47    4.99
   8  -2  -8    2.45    6.39
  -8  -2   8   -5.46    5.90
   8   2   8   -5.31    6.51
   8   2   8    1.75    4.89
   9  -2   0    9.27    2.08
  -9   2   0    8.66    2.49
  -9  -2   0    9.83    2.74
   9   2   0    9.85    2.45
   9   2   0    8.44    3.02
   9  -2   0   10.61    2.42
   9   2   0   11.59    2.17
  -9  -2  -1    3.90    2.59
   9   2  -1    1.44    1.89
  -9  -2  -1    3.35    2.81
   9   2  -1    3.82    2.24
   9   2  -1    2.35    2.75
  -9   2   1    0.91    2.18
   9  -2   1    4.80    2.34
   9  -2   1    1.12    2.05
   9   2   1    2.19    1.95
  -9  -2   1    0.97    2.30
   9   2   1    5.85    3.39
   9  -2  -1    1.17    2.06
   9   2   1    2.07    2.20
   9  -2  -1    2.90    1.88
  -9   2  -1    1.44    2.47
  -9  -2  -2   18.52    3.34
  -9  -2  -2   18.46    3.71
  -9   2   2   19.84    2.95
   9  -2   2   16.40    3.41
   9   2  -2   21.42    2.57
   9  -2   2   17.81    3.05
   9  -2   2   18.31    2.59
   9   2  -2   15.55    2.72
   9   2  -2   21.19    3.45
  -9   2   2   18.32    3.43
   9   2   2   15.28    2.49
   9  -2  -2   16.72    2.31
   9  -2  -2   18.66    2.85
  -9   2  -2   18.39    3.34
   9  -2  -2   21.61    2.71
   9   2   2   17.60    3.70
   9   2   2   15.86    2.88
   9  -2   3   20.98    3.69
   9  -2   3   20.16    4.15
   9   2  -3   17.88    3.21
  -9  -2  -3   22.09    3.35
  -9   2   3   22.54    4.41
   9   2  -3   21.62    4.32
   9  -2   3   17.23    3.05
  -9  -2  -3   21.75    4.30
  -9   2   3   21.01    3.47
   9   2  -3   17.75    3.86
  -9   2   3   23.80    3.41
  -9  -2  -3   23.69    3.99
   9  -2  -3   25.51    3.65
   9   2   3   22.22    3.51
   9   2   3   23.03    4.45
   9  -2  -3   24.40    3.20
  -9   2  -3   23.60    3.63
   9   2   3   18.71    2.93
   9  -2  -3   22.62    2.70
  -9   2  -3   19.56    3.96
   9  -2  -3   23.01    4.38
   9  -2  -3   20.52    3.34
   9  -2   4   13.63    3.39
  -9   2   4   15.90    4.96
  -9   2   4   19.51    3.41
  -9  -2  -4   14.35    4.99
   9   2  -4   13.33    4.29
  -9   2   4   15.11    3.69
   9   2  -4   18.79    5.19
  -9  -2  -4   10.80    4.35
   9   2  -4   14.02    3.89
   9  -2   4   15.23    4.89
   9  -2   4   14.45    4.04
  -9   2   4   14.82    4.15
  -9  -2  -4   19.15    3.62
   9  -2  -4   18.89    4.25
  -9  -2   4   13.10    3.59
   9   2   4    6.71    3.57
  -9  -2   4   13.20    4.06
   9  -2  -4   17.87    3.71
   9  -2  -4   17.28    3.46
   9   2   4   12.47    4.83
  -9   2  -4   19.46    4.65
  -9   2  -4   12.75    4.01
   9   2   4   14.78    3.21
  -9   2  -4    9.61    4.41
   9  -2  -4   16.21    4.80
   9  -2   5   23.74    4.12
   9  -2   5   33.32    6.10
  -9   2   5   37.25    4.70
   9   2  -5   30.30    5.69
  -9  -2  -5   36.72    6.28
  -9  -2  -5   34.00    5.34
  -9  -2  -5   31.43    4.33
   9  -2   5   25.65    4.80
  -9   2   5   37.55    5.53
  -9   2   5   33.36    6.54
   9   2  -5   36.93    6.81
  -9   2   5   36.17    4.42
  -9   2  -5   36.27    5.94
   9  -2  -5   28.05    4.21
  -9  -2   5   32.99    5.60
  -9   2  -5   22.62    4.98
  -9   2  -5   31.42    4.14
   9   2   5   27.89    3.94
   9  -2  -5   32.46    6.37
   9   2   5   27.49    4.82
   9   2   5   31.79    6.26
  -9  -2   5   30.56    4.61
  -9   2  -5   35.69    6.07
   9  -2  -5   31.56    5.48
  -9  -2  -6   23.82    5.94
   9   2  -6   16.28    5.27
  -9   2   6    9.25    5.55
   9  -2   6   10.77    5.82
  -9   2   6   12.66    3.97
   9  -2   6   12.92    4.37
  -9  -2  -6    8.05    3.60
  -9   2   6   14.35    5.04
  -9  -2  -6   10.85    4.55
   9   2  -6   13.05    6.13
  -9  -2  -6   12.69    4.94
   9  -2   6   16.95    3.92
  -9   2   6   15.99    3.16
  -9  -2   6   13.16    4.36
   9   2   6   11.34    4.35
   9  -2  -6   13.61    5.88
   9   2   6   10.69    3.50
  -9  -2   6   13.56    3.39
  -9  -2   6   12.38    5.13
   9   2   6   15.55    6.12
  -9   2  -6   22.16    5.45
   9  -2  -6   17.41    3.71
  -9   2  -6   16.04    4.40
  -9   2  -6   18.94    5.54
  -9  -2  -7   18.18    4.17
   9  -2   7    9.54    4.25
  -9   2   7   21.67    6.67
  -9   2   7   15.86    3.51
  -9   2   7   14.01    4.38
  -9  -2  -7   20.20    5.82
  -9   2   7   26.00    6.44
  -9  -2  -7   16.87    4.91
  -9  -2  -7   25.27    6.44
   9  -2   7   12.99    6.74
   9  -2   7   12.76    5.03
   9   2  -7   18.47    7.10
   9   2   7   13.65    4.07
   9  -2  -7   16.39    3.94
   9   2   7   19.98    5.02
   9   2   7   10.28    6.89
  -9   2  -7   18.00    4.52
  -9   2  -7   20.05    5.68
  -9  -2   7   12.60    5.96
   9  -2  -7   19.01    6.61
  -9  -2   7   14.70    3.66
  -9   2  -7   21.24    6.41
  -9  -2   7   12.15    4.71
  -9   2   8    1.00    6.16
   9   2  -8    4.07    6.68
  -9  -2  -8    3.99    6.17
   9  -2   8    7.80    4.41
  -9  -2  -8    9.82    4.46
   9  -2   8   -9.13    6.79
  -9  -2  -8   14.73    5.84
  -9  -2  -8   15.03    3.88
  -9   2   8   11.39    6.47
   9  -2   8   12.86    5.56
  -9   2  -8   13.18    4.41
  -9   2  -8   12.78    6.25
   9   2   8    6.37    5.10
   9   2   8    7.88    4.18
  -9  -2   8   11.12    6.40
   9   2   8   -6.00    6.72
  -9   2  -8   19.38    5.42
  -9  -2   8    3.78    3.62
   9  -2  -8    8.52    6.86
  -9  -2   8    6.95    5.19
 -10  -2   0   16.03    3.17
  10   2   0   16.15    3.51
  10  -2   0   17.99    2.56
  10   2   0   16.81    2.56
  10   2   0   18.39    2.84
 -10   2   0   13.39    2.83
  10  -2   0   17.67    2.84
 -10  -2  -1   44.58    4.69
  10  -2   1   46.69    4.01
  10   2  -1   44.25    4.63
 -10  -2  -1   43.40    4.22
 -10   2   1   45.98    4.16
  10   2  -1   37.50    3.71
  10  -2   1   40.26    3.37
  10   2  -1   37.72    3.10
 -10  -2   1   44.24    4.17
  10  -2  -1   43.29    3.12
 -10   2  -1   38.61    4.31
  10   2   1   41.12    3.35
  10   2   1   39.31    5.29
  10   2   1   42.40    3.75
  10  -2  -1   46.42    3.52
  10  -2   2   49.84    4.51
 -10   2   2   48.42    4.85
 -10  -2  -2   48.88    5.45
  10  -2   2   41.54    3.70
  10  -2   2   53.29    5.09
  10   2  -2   50.65    4.11
  10   2  -2   50.45    4.93
  10   2  -2   46.78    3.48
 -10  -2  -2   44.49    4.75
 -10   2   2   51.07    4.40
  10  -2  -2   51.19    4.31
  10  -2  -2   47.32    3.81
  10   2   2   43.49    5.64
 -10  -2   2   47.33    4.17
 -10   2  -2   49.57    5.00
  10  -2  -2   44.50    3.31
  10   2   2   48.71    4.29
  10   2   2   47.61    3.60
 -10   2   3   22.92    4.59
 -10  -2  -3   16.04    3.55
  10  -2   3   22.51    3.91
  10   2  -3   20.06    3.65
 -10  -2  -3   20.28    4.74
  10  -2   3   20.26    4.51
 -10   2   3   24.43    3.75
 -10  -2  -3   18.81    4.40
  10   2  -3   18.74    3.23
  10  -2   3   20.46    3.39
  10   2  -3   23.34    4.30
 -10   2  -3   23.55    4.12
  10  -2  -3   20.51    4.63
  10   2   3   16.37    3.65
  10   2   3   17.90    3.16
  10  -2  -3   26.29    3.56
  10   2   3   25.78    5.07
 -10   2  -3   24.28    4.59
  10  -2  -3   25.71    3.06
  10  -2  -3   20.99    3.65
 -10   2   4   11.46    4.93
  10  -2   4    6.97    4.07
  10   2  -4   11.92    4.97
 -10   2   4    7.54    4.14
 -10  -2  -4   10.27    5.19
 -10  -2  -4    6.81    4.52
 -10   2   4   10.11    3.80
  10  -2   4    6.23    5.00
 -10  -2  -4   12.11    3.64
  10  -2   4   12.05    3.59
  10   2  -4    7.58    4.49
  10   2  -4   10.06    4.03
  10  -2  -4   10.74    4.32
  10   2   4    4.00    3.69
  10  -2  -4   15.29    3.81
  10  -2  -4    9.74    4.81
 -10   2  -4    6.98    4.97
  10  -2  -4   10.00    3.55
  10   2   4    7.97    5.02
 -10   2  -4   12.33    4.34
  10   2   4    9.70    3.31
 -10   2   5   16.01    4.70
  10   2  -5   11.14    4.89
 -10   2   5   11.83    5.56
  10  -2   5   12.90    5.45
 -10   2   5   10.29    3.68
  10   2  -5   10.37    5.54
 -10  -2  -5   11.59    3.73
 -10  -2  -5   13.57    5.75
  10  -2   5   13.44    3.70
 -10   2   5   10.03    3.87
 -10  -2  -5    6.24    4.69
  10  -2   5    5.41    4.14
  10  -2  -5   15.08    5.04
  10   2   5   11.09    4.00
 -10   2  -5   12.33    4.89
  10  -2  -5    8.81    5.30
 -10   2  -5   13.80    5.41
 -10  -2   5    7.49    4.65
 -10  -2   5    9.11    3.98
 -10   2  -5    7.33    3.65
  10  -2  -5    8.78    3.60
 -10   2  -5   12.23    4.66
  10   2   5   11.00    5.50
  10   2   5    8.83    3.27
 -10  -2  -6    9.30    4.74
  10   2  -6    9.31    5.22
  10   2  -6    3.87    5.67
 -10   2   6    7.26    5.54
 -10  -2  -6    9.48    5.86
 -10   2   6   11.25    3.13
  10  -2   6    8.85    4.44
 -10   2   6    8.47    4.81
  10  -2   6    5.50    3.65
 -10  -2  -6    4.03    3.58
 -10  -2  -6    6.24    4.61
  10  -2   6    7.42    5.95
 -10   2   6   13.72    4.09
  10   2   6    9.02    4.28
 -10   2  -6   10.27    3.64
 -10   2  -6    8.41    4.41
 -10  -2   6    5.88    4.15
 -10  -2   6    5.03    3.12
  10   2   6    9.83    3.60
 -10  -2   6    8.43    5.07
 -10   2  -6    5.34    5.35
  10   2   6    4.69    5.97
 -10   2  -6   13.97    5.42
  10  -2  -6   11.89    5.82
  10  -2  -6   12.47    3.79
 -10   2   7   -4.17    5.27
 -10   2   7    5.76    5.77
  10   2  -7   10.43    6.11
 -10   2   7    7.28    4.28
  10  -2   7   -4.47    6.03
  10  -2   7    6.93    4.07
  10  -2   7   10.05    5.06
 -10   2   7    2.19    4.16
 -10  -2  -7   16.22    5.08
 -10  -2  -7   10.68    5.84
  10   2  -7    6.70    6.45
 -10  -2  -7    5.33    3.59
 -10   2  -7    2.15    4.30
  10  -2  -7    0.62    6.05
 -10  -2   7    6.19    4.37
 -10   2  -7    5.58    5.63
  10   2   7    1.05    6.63
  10   2   7    2.33    3.65
  10  -2  -7    4.33    3.82
 -10  -2   7    4.46    3.40
 -10   2  -7    9.26    5.61
 -10  -2   7   -3.96    5.21
  10   2   7    5.93    4.67
  11   2   0    5.83    2.83
  11  -2   0    6.71    2.68
  11  -2   0    5.08    3.08
 -11  -2   0    2.34    3.38
  11   2   0    4.90    3.68
  11   2   0    3.98    2.45
 -11   2   0    4.79    3.07
 -11   2   1   11.54    3.22
  11   2  -1   11.04    3.20
 -11  -2  -1   12.40    3.87
  11  -2   1   14.94    3.38
 -11  -2  -1    8.72    3.56
  11   2  -1   11.37    3.91
  11   2  -1    9.34    2.64
  11  -2   1   14.37    2.95
  11   2   1    9.05    2.78
 -11  -2   1   10.84    3.47
  11  -2  -1   14.32    2.81
  11  -2  -1   10.69    2.99
  11   2   1   11.42    3.19
  11   2   1    7.33    4.45
 -11   2  -1    9.72    3.51
  11  -2   2    8.22    4.15
  11   2  -2   10.30    4.01
 -11   2   2   14.25    3.49
 -11  -2  -2    6.46    4.23
  11  -2   2   11.01    3.60
  11   2  -2    7.85    2.86
  11   2  -2    9.66    3.32
 -11  -2  -2    8.10    3.78
  11  -2   2   10.10    2.92
  11   2   2   11.40    4.79
  11   2   2    3.67    3.23
  11   2   2    7.58    2.82
 -11  -2   2   10.79    3.42
 -11   2  -2   11.93    3.92
  11  -2  -2   11.75    3.15
  11  -2  -2   10.48    2.75
  11   2  -3   11.91    3.32
 -11   2   3   12.68    4.40
 -11  -2  -3   14.21    4.58
  11  -2   3    9.21    4.59
  11   2  -3   15.70    3.86
 -11   2   3   14.70    3.76
  11  -2   3   14.38    3.25
  11  -2   3   11.43    3.85
 -11  -2  -3    7.60    3.37
 -11  -2  -3   12.46    4.87
  11   2  -3   13.62    4.41
  11  -2  -3   13.68    3.63
  11  -2  -3   11.36    3.03
  11   2   3   12.87    3.62
 -11   2  -3   15.12    4.28
  11   2   3   12.58    4.95
 -11   2  -3    9.21    4.59
  11  -2  -3   12.55    3.57
  11   2   3   11.90    3.20
 -11   2   4    8.64    3.94
 -11   2   4    8.56    4.26
 -11  -2  -4   10.43    3.83
 -11  -2  -4   13.77    5.66
  11  -2   4    7.43    3.63
  11   2  -4   11.36    4.24
  11   2  -4   13.96    4.83
  11  -2   4    5.59    5.10
  11  -2   4    5.96    4.17
 -11  -2  -4   13.00    5.28
  11   2  -4    6.27    4.90
 -11   2   4   10.49    4.98
  11   2   4    8.98    3.43
  11   2   4    6.19    3.89
  11  -2  -4   11.41    3.89
  11   2   4    9.91    5.55
  11  -2  -4    8.07    3.94
  11  -2  -4    7.97    5.03
  11  -2  -4   10.72    4.54
 -11   2  -4    8.07    4.78
 -11   2  -4    8.58    5.37
  11  -2   5    5.65    5.38
  11   2  -5    8.25    5.43
  11   2  -5    5.72    4.74
  11   2  -5   11.54    4.30
 -11   2   5    8.04    3.79
  11  -2   5    4.12    4.14
 -11  -2  -5    6.69    3.44
  11  -2   5    9.46    3.66
 -11  -2  -5   10.45    5.57
 -11  -2  -5   11.09    4.69
 -11   2   5   11.99    5.33
 -11   2   5    8.06    4.37
 -11   2   5    4.54    3.25
 -11   2  -5    6.09    4.89
  11  -2  -5    9.63    5.27
  11  -2  -5   12.42    3.94
 -11   2  -5    9.31    3.61
 -11   2  -5   10.79    5.42
  11   2   5    6.95    3.85
  11  -2  -5   15.55    4.78
  11  -2  -5    6.38    3.65
  11   2   5   10.82    3.39
 -11  -2   5    9.08    3.75
  11   2   5    6.11    5.52
 -11  -2   5   10.85    4.67
 -11   2   6   11.75    5.87
 -11   2   6   11.25    4.21
 -11   2   6    8.68    5.10
 -11  -2  -6   11.53    5.23
 -11  -2  -6   15.10    6.37
  11  -2   6    9.82    6.24
  11  -2   6    9.85    4.73
 -11  -2  -6    9.15    3.93
  11   2  -6   11.92    5.32
  11  -2   6    7.85    3.69
 -11   2   6   12.28    2.94
  11   2  -6   11.36    6.12
 -11   2   6    9.75    3.97
  11   2   6   11.84    4.46
 -11   2  -6   11.30    5.37
  11  -2  -6    7.07    3.78
 -11   2  -6    6.32    3.73
 -11  -2   6   12.25    3.32
 -11   2  -6   19.26    6.11
  11   2   6   15.87    3.77
 -11   2  -6    9.06    4.62
 -11  -2   6   12.92    4.42
  11   2   6    6.64    6.21
 -11  -2   6   11.12    5.35
  11  -2  -6    7.72    5.89
  11  -2   7    0.58    6.44
 -11  -2  -7   10.79    5.14
 -11  -2  -7   11.29    4.07
  11  -2   7    2.54    5.04
 -11   2   7    4.57    4.36
 -11  -2  -7    6.08    6.11
 -11   2   7    7.87    6.13
  11  -2   7    9.97    4.12
  11   2  -7    5.88    6.32
  11   2  -7    9.92    6.21
 -11   2   7    7.97    5.80
  11   2   7    9.32    4.72
 -11  -2   7    6.42    3.55
  11   2   7    1.59    6.69
 -11   2  -7    7.05    7.35
 -11   2  -7   10.91    5.89
  11  -2  -7   10.46    6.37
 -11  -2   7    7.82    5.73
 -11   2  -7   10.31    4.65
 -11  -2   7    7.22    4.52
  11   2   7    9.72    3.73
  11  -2  -7    5.01    4.69
 -12  -2   0   49.83    5.54
  12   2   0   50.30    4.65
 -12   2   0   50.18    5.22
  12   2   0   53.56    5.84
  12   2   0   43.75    3.86
  12  -2   0   49.27    4.74
  12  -2   0   50.45    4.08
 -12  -2  -1   44.05    5.77
  12  -2   1   38.26    3.95
  12  -2   1   46.03    4.90
 -12  -2  -1   40.29    5.30
  12   2  -1   45.15    4.69
  12   2  -1   37.16    3.80
  12   2  -1   47.22    5.57
 -12   2   1   49.14    5.20
 -12  -2   1   52.50    5.29
 -12   2  -1   41.02    5.25
  12  -2  -1   43.47    3.82
  12   2   1   46.04    4.08
  12  -2  -1   51.94    4.51
  12   2   1   44.56    6.22
  12   2   1   41.38    4.82
 -12  -2  -2   38.38    4.99
  12   2  -2   39.42    5.62
  12   2  -2   38.66    4.12
  12  -2   2   33.39    4.47
  12   2  -2   45.60    4.82
 -12   2   2   48.97    5.41
  12  -2   2   42.19    6.02
 -12  -2  -2   39.70    5.49
  12  -2   2   38.84    4.30
  12   2   2   39.48    4.12
  12  -2  -2   40.45    3.87
  12  -2  -2   47.42    4.56
 -12   2  -2   44.73    5.85
  12   2   2   36.76    5.89
 -12  -2   2   51.53    5.10
  12   2   2   32.69    4.07
 -12   2   3   24.37    5.05
 -12  -2  -3   28.49    5.32
  12   2  -3   22.10    3.86
  12  -2   3   22.27    4.37
 -12   2   3   26.20    4.54
  12  -2   3   20.74    3.75
 -12  -2  -3   25.73    5.51
  12   2  -3   26.63    4.48
  12  -2   3   18.51    5.06
  12   2  -3   23.90    5.20
 -12  -2  -3   15.06    3.76
 -12   2  -3   27.50    5.49
  12  -2  -3   21.06    3.54
  12   2   3   26.26    5.91
 -12  -2   3   28.41    4.24
  12   2   3   21.75    3.68
  12   2   3   16.84    3.97
  12  -2  -3   27.20    4.42
  12  -2  -3   25.72    4.20
  12  -2  -3   30.34    4.80
 -12   2  -3   25.10    5.02
  12   2  -4   21.84    5.09
  12  -2   4   15.34    5.33
 -12   2   4   20.55    4.20
  12  -2   4   11.77    4.20
 -12  -2  -4   17.36    5.91
 -12  -2  -4   19.74    5.68
 -12   2   4   17.77    4.47
 -12   2   4   18.39    5.23
  12  -2   4   15.57    3.48
 -12  -2  -4   14.65    3.94
  12   2  -4   17.24    4.44
  12  -2  -4   19.57    4.11
 -12   2  -4   16.10    5.49
  12   2   4   12.18    3.97
  12  -2  -4   15.68    3.97
  12  -2  -4   16.12    4.61
  12   2   4   13.20    3.56
  12   2   4   15.23    5.70
 -12   2  -4   23.51    5.43
  12  -2  -4   12.82    5.17
 -12   2   5   15.63    3.70
  12  -2   5   13.35    3.72
  12   2  -5   21.18    4.86
 -12   2   5   10.03    4.01
 -12   2   5   10.21    5.32
 -12   2   5   11.39    4.49
  12   2  -5   11.68    4.93
 -12  -2  -5    6.40    5.16
  12   2  -5    5.29    5.22
  12  -2   5    9.57    4.35
  12  -2   5    8.08    5.69
 -12  -2  -5   15.52    6.34
 -12  -2  -5    7.07    3.71
 -12  -2   5   16.49    4.00
  12   2   5   10.65    4.17
  12   2   5    8.52    3.52
  12  -2  -5   13.04    4.15
 -12   2  -5    9.50    3.70
 -12   2  -5    2.76    5.28
  12  -2  -5   11.97    3.95
  12  -2  -5   17.11    4.94
 -12   2  -5   15.34    5.57
  12   2   5    9.11    5.64
  12  -2  -5    4.27    5.18
 -12  -2   5   19.14    5.24
 -12  -2   5   15.66    5.12
 -12   2   6   10.47    5.85
  12  -2   6    6.10    6.26
  12   2  -6   16.10    5.91
 -12  -2  -6    8.59    3.96
  12  -2   6    5.56    4.78
  12   2  -6    6.07    6.16
 -12  -2  -6   11.62    5.60
 -12   2   6    6.31    4.28
 -12   2   6    3.27    4.97
 -12  -2  -6    7.94    6.59
  12  -2   6    5.97    3.83
  12   2   6    8.87    4.39
  12   2   6   11.95    3.83
 -12  -2   6   11.33    5.75
  12  -2  -6    1.67    3.76
  12  -2  -6    0.97    5.68
 -12   2  -6   20.28    6.26
 -12  -2   6   10.91    4.58
 -12  -2   6   11.70    5.41
 -12   2  -6    3.62    3.83
  12   2   6    3.37    6.27
 -12   2  -6    5.37    5.93
 -12  -2  -7    6.14    5.09
  12  -2   7    2.71    4.95
  12  -2   7    2.84    3.96
 -12   2   7    3.82    5.75
 -12  -2  -7    7.79    6.43
 -12  -2  -7   10.09    4.10
 -12   2   7    2.90    6.00
  12  -2   7   -8.48    6.53
  12   2  -7    1.13    5.89
  12   2  -7    1.94    6.27
  12  -2  -7    2.61    6.14
 -12  -2   7    2.91    3.42
  12   2   7   -5.05    6.69
  12   2   7    6.92    3.67
 -12  -2   7    7.11    5.37
 -12   2  -7    0.22    3.80
  12   2   7    1.55    4.44
 -12   2  -7    3.58    4.79
 -12  -2   7    2.72    5.55
 -12   2  -7    9.10    6.02
 -12  -2   7    2.42    4.65
  13   2   0   11.71    3.71
 -13   2   0   14.54    4.21
  13   2   0   15.16    3.40
 -13  -2   0   15.32    4.73
  13  -2   0   13.24    3.81
  13   2   0   14.59    4.73
  13  -2   0   15.69    3.52
  13  -2   1    4.58    3.37
  13   2  -1    3.04    4.41
  13   2  -1    1.21    3.03
  13   2  -1    4.74    3.68
 -13  -2  -1    5.52    4.50
 -13   2   1    2.62    3.92
  13  -2   1    1.26    3.76
 -13  -2  -1    3.50    4.31
  13   2   1    6.89    3.87
  13  -2  -1    2.76    3.44
  13  -2  -1    1.12    2.97
 -13   2  -1    4.35    3.90
 -13  -2   1    1.95    4.13
  13   2   1    2.49    4.81
  13   2   1    3.58    3.20
  13   2  -2   11.45    4.00
 -13  -2  -2   12.54    4.89
  13  -2   2    9.76    3.50
  13   2  -2   14.67    3.61
 -13  -2  -2   13.86    5.42
  13  -2   2    8.44    4.09
 -13   2   2   14.24    4.42
  13   2  -2   13.34    4.87
  13  -2  -2   12.76    3.80
 -13   2  -2   11.90    4.58
  13   2   2   11.25    3.59
 -13  -2   2   19.00    4.35
  13   2   2   12.36    4.19
  13   2   2   13.82    5.70
  13  -2  -2   10.56    3.24
 -13  -2  -3    8.37    5.34
  13  -2   3   13.71    3.66
 -13  -2  -3    3.86    3.71
 -13  -2  -3    5.05    4.89
  13  -2   3    5.04    4.08
  13   2  -3   10.51    4.24
  13  -2   3    7.07    4.99
  13   2  -3   11.58    3.66
  13   2  -3   10.35    4.89
 -13   2   3   13.48    4.37
  13   2   3    9.68    5.49
  13   2   3    7.17    3.61
  13  -2  -3    7.50    3.87
 -13  -2   3   10.58    4.04
  13  -2  -3   10.95    3.40
 -13   2  -3   13.34    5.01
  13   2   3   12.81    3.38
 -13   2  -3    9.38    5.15
  13  -2   4    6.33    3.24
  13   2  -4   10.46    4.67
 -13  -2  -4    5.25    5.48
 -13  -2  -4    2.54    5.44
 -13   2   4    6.12    3.87
  13   2  -4   10.41    4.36
  13  -2   4   -0.76    4.84
 -13  -2  -4    2.97    3.54
 -13   2   4    4.77    3.99
  13  -2   4   -2.51    3.76
 -13   2   4   -0.23    4.26
 -13   2  -4    4.18    5.01
  13   2   4    2.41    5.35
  13  -2  -4    3.73    3.66
  13  -2  -4    7.64    3.78
  13   2   4    2.98    3.12
  13   2   4    4.32    3.70
  13  -2  -4    3.91    4.10
 -13   2  -4    4.93    5.29
  13  -2   5    9.11    3.62
 -13  -2  -5    5.08    3.75
  13  -2   5    2.77    4.28
 -13   2   5    8.44    4.60
  13   2  -5    4.87    5.21
  13   2  -5    9.43    5.04
  13  -2   5    5.84    5.65
 -13   2   5   12.33    3.57
  13   2  -5   10.04    4.80
 -13   2   5    7.64    5.29
 -13  -2  -5    8.90    5.59
 -13  -2  -5    8.64    6.25
 -13   2   5    9.68    4.19
  13   2   5    7.76    3.55
  13  -2  -5    9.57    4.16
  13  -2  -5    3.64    3.86
 -13  -2   5    8.30    4.06
  13   2   5    4.63    4.11
 -13   2  -5    0.48    5.82
 -13  -2   5   14.87    5.18
 -13  -2   5    8.91    4.99
  13  -2  -5    3.87    5.32
 -13   2  -5    7.44    3.73
  13  -2  -5    5.90    4.66
 -13   2  -5    7.74    6.00
  13   2   5   -0.37    5.76
 -13  -2  -6    6.84    4.07
 -13   2   6   10.40    4.51
  13   2  -6    1.17    5.73
  13  -2   6   -6.80    6.15
 -13   2   6    3.33    5.68
 -13   2   6   -3.39    3.81
  13  -2   6    0.81    3.56
  13   2  -6   10.06    5.60
 -13   2   6   -1.55    4.78
  13  -2   6    4.10    4.58
 -13  -2  -6    3.59    6.60
 -13  -2  -6   13.45    5.66
 -13  -2   6   -2.51    5.30
  13   2   6   -6.84    6.14
 -13   2  -6   -2.12    5.76
 -13  -2   6   14.42    5.72
  13  -2  -6    1.47    5.76
 -13   2  -6   -1.65    6.24
 -13  -2   6    7.45    4.47
  13  -2  -6    5.81    5.36
  13  -2  -6   -0.43    3.81
  13   2   6    4.62    4.44
 -13   2  -6    0.39    3.67
  13   2   6    5.70    3.89
  13   2  -7    2.08    6.20
  13  -2  -7   -4.04    6.20
 -14  -2   0   40.30    5.69
  14  -2   0   52.26    5.38
  14   2   0   45.33    5.16
  14   2   0   40.23    4.47
  14   2   0   49.91    6.33
  14  -2   0   42.46    4.44
 -14   2   0   47.86    5.97
 -14   2   1   30.43    5.04
 -14  -2  -1   35.90    5.52
  14  -2   1   33.60    4.19
 -14  -2  -1   37.71    5.48
  14  -2   1   34.91    4.65
  14   2  -1   39.48    4.28
  14   2  -1   43.04    6.10
  14   2  -1   31.41    4.47
  14  -2  -1   28.47    3.83
  14   2   1   44.18    5.29
  14   2   1   38.36    4.27
 -14   2  -1   46.09    6.10
  14  -2  -1   42.00    5.00
 -14  -2   1   35.30    5.25
  14   2   1   37.45    5.98
 -14  -2  -2   32.80    6.04
  14   2  -2   27.48    4.53
  14  -2   2   28.90    5.27
  14   2  -2   30.09    5.30
  14   2  -2   31.12    4.06
  14  -2   2   27.32    4.46
  14  -2   2   29.02    4.04
 -14   2   2   27.95    4.98
 -14  -2  -2   28.16    5.62
  14  -2  -2   22.21    3.70
 -14  -2   2   29.76    4.93
 -14   2  -2   22.71    5.02
  14  -2  -2   29.15    4.23
  14   2   2   32.55    6.21
  14   2   2   25.95    3.93
  14   2   2   32.13    4.65
 -14  -2  -3   23.75    5.62
 -14   2   3   20.98    4.97
  14   2  -3   23.70    5.33
 -14  -2  -3   19.30    5.69
  14  -2   3   23.67    3.92
  14  -2   3   18.79    4.32
  14  -2   3   20.74    5.18
  14   2  -3   22.28    4.00
  14   2  -3   27.83    4.68
 -14  -2   3   20.87    4.51
  14  -2  -3   19.85    3.61
 -14   2  -3   17.38    5.43
  14   2   3   21.29    5.88
 -14   2  -3   29.39    5.55
  14   2   3   13.65    3.38
  14   2   3   11.74    3.83
  14  -2  -3   27.45    4.26
 -14   2   4   18.94    4.74
 -14  -2  -4   11.02    4.23
  14  -2   4    8.24    5.20
 -14  -2  -4   15.34    6.26
  14  -2   4   13.95    4.51
 -14  -2  -4   18.00    6.20
  14  -2   4   14.78    3.63
  14   2  -4   20.62    4.86
 -14   2   4   20.68    4.64
  14   2  -4   18.94    5.03
 -14   2  -4   13.65    6.03
  14   2   4   14.82    3.73
 -14   2  -4   18.48    6.06
  14  -2  -4   20.10    3.71
  14   2   4   12.04    5.94
  14   2   4   19.41    4.26
  14  -2  -4   22.61    4.40
  14  -2  -4   18.50    4.76
  14   2  -5   16.97    5.40
  14  -2   5    2.75    5.87
 -14   2   5   13.25    4.86
  14   2  -5   22.82    5.56
 -14   2   5    7.15    5.33
  14  -2   5   16.71    5.04
  14  -2   5   15.90    3.91
 -14   2   5   10.90    3.81
 -14  -2  -5   16.57    7.01
 -14  -2  -5    9.67    4.40
 -14   2   5    9.09    4.81
 -14  -2  -5   17.29    6.89
 -14   2  -5   19.38    6.49
 -14   2  -5   10.28    6.45
 -14   2  -5    9.43    3.98
 -14  -2   5   12.04    5.31
 -14  -2   5   15.83    4.25
  14   2   5   13.43    6.18
  14  -2  -5   17.79    4.81
  14   2   5   16.43    4.52
  14   2   5   11.37    3.90
  14  -2  -5    4.57    4.74
  14  -2  -5    8.94    4.34
  14  -2   6    3.99    6.50
 -14   2   6    5.25    5.12
 -14  -2  -6    2.86    4.09
 -14  -2  -6   17.36    7.34
 -14   2   6   11.05    4.62
 -14   2   6    3.42    4.80
  14   2  -6   12.55    5.78
 -14   2   6    7.82    5.84
 -14  -2  -6   16.98    6.28
  14  -2   6   10.26    4.03
  14  -2   6   15.30    5.08
  14  -2  -6    6.47    4.37
  14  -2  -6    4.30    5.43
 -14  -2   6   11.23    5.80
 -14   2  -6    7.52    6.83
 -14   2  -6    6.32    3.89
  14  -2  -6    1.61    5.92
  14   2   6    1.10    4.43
  14   2   6    4.18    6.58
  14   2   6    8.99    3.93
 -14   2  -6    5.63    6.32
 -14  -2   6    4.05    4.38
 -15   2   0    7.28    4.46
 -15  -2   0    5.14    4.83
  15  -2   0    7.71    3.40
  15   2   0    9.21    4.42
  15   2   0    4.57    3.33
  15  -2   0    7.82    3.86
  15   2   0    6.23    3.87
  15   2  -1    3.48    3.83
 -15  -2  -1    5.87    4.87
 -15  -2  -1   10.61    5.21
  15   2  -1   17.46    4.70
  15  -2   1    7.61    4.02
  15  -2   1    9.80    3.65
 -15   2   1    4.41    4.53
  15   2  -1    5.46    3.34
 -15   2  -1    4.93    4.41
  15   2   1    8.74    5.17
  15  -2  -1    5.58    3.18
 -15  -2   1    7.72    4.71
  15  -2  -1   11.99    3.79
  15   2   1    9.74    3.64
  15   2   1    7.59    4.08
  15   2  -2    8.32    4.18
  15  -2   2    7.12    4.02
  15   2  -2    2.36    3.44
  15   2  -2   10.70    4.60
 -15  -2  -2    4.88    5.07
 -15  -2  -2    5.61    5.44
 -15   2   2   -0.08    4.39
  15  -2   2    6.22    3.33
  15  -2  -2   11.42    3.55
 -15  -2   2    7.01    4.37
  15   2   2    5.86    3.56
  15  -2  -2    4.53    3.15
 -15   2  -2   10.42    4.73
  15   2   2    8.05    4.15
  15   2   2    4.92    5.16
  15  -2   3   -1.82    4.68
  15   2  -3    2.81    4.24
 -15  -2  -3    2.24    5.68
  15  -2   3    3.58    3.45
 -15  -2  -3    5.56    5.44
 -15   2   3    0.71    4.40
  15   2  -3    4.63    3.65
  15   2  -3    8.68    4.91
  15  -2   3    7.25    4.32
  15  -2  -3    6.07    3.80
 -15   2  -3   -0.84    5.19
 -15   2  -3    5.00    5.19
  15   2   3    4.13    3.60
  15   2   3    1.47    5.32
 -15  -2   3    1.96    4.33
  15  -2  -3    6.45    3.48
  15   2   3    5.82    3.61
  15  -2   4    5.92    3.66
  15   2  -4    9.40    4.93
  15   2  -4   10.11    4.68
 -15   2   4    4.45    4.70
 -15  -2  -4    2.19    4.17
  15  -2   4   -5.38    5.06
  15  -2   4    6.51    4.41
 -15  -2  -4    0.03    6.14
 -15  -2  -4    5.16    6.31
  15  -2  -4    3.16    4.08
 -15   2  -4    8.69    6.15
  15  -2  -4   11.41    3.64
  15   2   4    8.37    3.45
 -15   2  -4    7.33    6.11
  15   2   4    3.90    5.78
  15   2   4    3.03    4.04
  15  -2   5   -2.46    3.59
  15   2  -5    5.37    5.11
 -15  -2  -5    2.79    4.27
  15   2  -5    3.03    4.96
 -15  -2  -5    4.06    7.02
  15  -2   5   -1.59    5.63
  15  -2   5   -2.66    4.59
 -15  -2  -5    2.18    6.70
 -15   2   5   -0.94    4.66
 -15   2   5   -1.93    5.88
 -15   2  -5   -5.76    6.55
  15   2   5    7.50    3.80
  15   2   5    3.22    4.29
  15   2   5   -4.04    5.75
  15  -2  -5    5.74    5.16
 -15   2  -5    4.97    3.93
 -15  -2   5    3.22    5.03
 -15   2  -5    5.36    6.32
  15  -2  -5    2.35    4.44
  15  -2   6    3.28    4.90
  15   2  -6    1.16    5.60
  15  -2   6    3.80    3.95
  15  -2   6    5.34    6.68
 -15  -2  -6   10.77    7.35
 -15  -2  -6    4.42    4.34
 -15  -2  -6    2.76    6.17
  15   2   6    4.09    6.73
  15   2   6   -1.83    3.70
 -15  -2   6    3.18    5.54
 -15   2  -6   -4.19    6.28
  15   2   6    0.95    4.39
 -15   2  -6   -3.79    3.79
 -15   2  -6   -5.04    6.85
 -15  -2   6    4.61    4.37
  16   2   0   21.25    3.93
  16   2   0   21.10    4.32
  16   2   0   23.02    4.67
 -16   2   0   20.92    5.22
  16  -2   0   20.61    4.12
 -16  -2   0   15.32    5.34
  16  -2   0   17.02    3.79
  16   2  -1   28.46    4.61
 -16  -2  -1   24.01    5.91
  16  -2   1   26.32    4.20
  16   2  -1   41.30    5.79
  16  -2   1   26.84    4.58
 -16   2   1   28.18    5.43
  16   2  -1   26.84    4.05
 -16  -2  -1   35.20    5.95
  16   2   1   28.57    4.77
  16   2   1   22.79    4.01
  16   2   1   43.63    6.40
 -16   2  -1   21.94    5.26
  16  -2  -1   23.04    3.85
  16  -2  -1   27.22    4.21
 -16  -2   1   23.38    5.45
 -16  -2  -2   19.24    6.10
  16   2  -2   20.62    4.65
  16  -2   2   26.13    4.81
 -16   2   2   17.47    5.16
  16  -2   2   16.99    4.13
 -16  -2  -2   23.76    6.07
  16   2  -2   27.73    5.42
  16   2  -2   25.57    4.25
  16   2   2   22.09    4.96
  16   2   2   25.89    4.18
  16   2   2   21.79    5.82
  16  -2  -2   21.22    3.70
 -16   2  -2   18.04    5.30
 -16  -2   2   18.88    5.11
  16  -2  -2   20.31    4.05
  16  -2   3   12.41    4.56
 -16  -2  -3    8.30    6.25
  16   2  -3   20.13    5.42
  16   2  -3   19.94    4.81
  16   2  -3   10.65    3.96
  16  -2   3    9.52    5.17
 -16   2   3   13.31    5.27
  16  -2   3   14.00    3.78
 -16  -2  -3   10.30    6.35
 -16   2  -3    7.80    5.91
  16  -2  -3   18.40    4.30
 -16   2  -3   17.67    6.20
 -16  -2   3    7.86    4.82
  16   2   3   17.08    4.97
  16   2   3   13.64    5.90
  16  -2  -3   15.77    3.80
  16   2   3   14.23    4.17
 -16   2   4   12.06    5.29
  16  -2   4    5.98    5.44
  16   2  -4   20.10    5.07
 -16  -2  -4    7.87    6.52
 -16  -2  -4    2.47    4.52
  16  -2   4    6.73    3.90
 -16  -2  -4   13.97    6.96
  16   2  -4   20.56    5.45
  16  -2   4   16.98    5.02
  16  -2  -4    9.33    3.78
  16  -2  -4   17.86    4.52
 -16   2  -4   11.31    6.43
  16   2   4   11.09    3.68
  16   2   4   10.43    4.44
 -16  -2   4   10.51    5.22
 -16   2  -4   12.77    6.42
  16   2   4   13.50    6.27
  16   2  -5   17.49    5.43
  16  -2   5    2.25    6.03
  16   2  -5   17.95    5.80
 -16  -2  -5    8.67    7.17
 -16  -2  -5    7.22    7.32
  16  -2   5    6.27    4.85
 -16   2   5    6.02    5.35
 -16  -2  -5    7.99    4.58
  16  -2   5   12.85    4.30
  16   2   5    8.03    6.45
 -16   2  -5    0.31    6.84
  16   2   5   12.44    4.60
 -16   2  -5    2.89    3.92
 -16   2  -5    6.54    6.68
  16  -2  -5   14.97    4.89
 -16  -2   5   15.84    5.46
  16   2   5   10.91    3.84
  17  -2   0    6.58    3.95
  17   2   0    1.06    4.17
 -17   2   0    2.93    4.99
  17  -2   0    1.44    3.41
  17   2   0    2.75    3.60
 -17  -2   0   -3.80    5.06
  17   2   0    8.14    4.52
  17   2  -1   10.64    4.24
  17   2  -1    6.19    3.80
  17   2  -1   13.00    4.70
  17  -2   1    4.34    3.86
 -17  -2  -1    5.18    5.60
  17  -2   1    5.27    4.18
 -17  -2  -1    5.50    5.80
 -17   2   1    3.18    5.15
 -17   2  -1    0.30    5.00
  17  -2  -1   10.73    4.01
 -17  -2   1    1.98    5.14
  17  -2  -1    8.34    3.49
  17   2   1    3.87    3.77
  17   2   1   11.91    5.03
  17   2   1   13.53    4.49
  17   2  -2    6.30    3.92
 -17  -2  -2    4.22    6.04
  17  -2   2    8.75    4.20
  17  -2   2   13.47    4.68
 -17  -2  -2   13.56    6.19
  17   2  -2   14.22    4.94
  17   2  -2    9.68    4.61
 -17   2   2    2.73    5.28
 -17   2  -2   -0.36    5.04
  17  -2  -2   12.15    3.90
  17  -2  -2    6.09    3.40
 -17  -2   2    2.51    4.96
  17   2   2   10.15    4.09
  17   2   2   16.09    5.88
  17   2   2    2.37    4.65
 -17   2   3    4.82    5.21
 -17  -2  -3   -1.42    4.27
  17  -2   3   -0.92    3.49
  17  -2   3    5.83    4.35
 -17  -2  -3    2.51    6.47
  17   2  -3    4.51    3.98
  17   2  -3   16.32    4.67
  17   2  -3   11.00    5.18
 -17  -2  -3    4.20    6.36
  17   2   3    6.19    4.15
  17  -2  -3    8.15    4.22
 -17   2  -3    2.26    6.37
  17   2   3    6.19    4.92
  17   2   3    7.31    5.96
 -17   2  -3   -4.47    5.79
 -17  -2   3    0.77    4.84
  17  -2  -3    4.64    3.53
 -17  -2  -4   -6.70    4.34
 -17   2   4   -6.15    5.21
  17   2  -4    2.85    4.61
  17  -2   4    7.51    4.69
 -17  -2  -4    3.92    6.88
  17  -2   4    6.84    3.91
  17   2  -4    5.88    5.10
 -17  -2  -4    1.46    6.65
  17  -2   4    0.74    5.77
  17  -2  -4    5.93    4.31
 -17   2  -4   -4.61    6.35
  17  -2  -4   -2.28    3.61
  17   2   4    7.08    4.14
  17   2   4   10.91    4.43
 -17   2  -4   -5.54    6.27
  17   2   4   -2.45    5.97
  18  -2   0   13.11    3.80
  18   2   0    9.97    4.52
  18   2   0    9.13    4.18
  18   2   0   19.49    5.04
 -18  -2   0    6.20    6.06
 -18  -2   0    1.54    5.60
  18  -2   0   11.76    4.24
 -18   2   0    7.27    5.47
 -18  -2  -1    9.98    6.25
  18   2  -1   10.05    4.12
 -18   2   1   11.13    5.74
  18   2  -1   24.90    4.94
 -18  -2  -1    2.97    5.99
  18  -2   1   13.40    4.49
  18   2  -1   13.94    4.64
  18  -2   1    6.93    3.99
 -18   2  -1    6.89    5.64
  18  -2  -1   15.86    4.08
  18   2   1   11.12    4.09
 -18  -2   1    4.88    5.59
  18   2   1   16.34    4.85
  18   2   1   18.46    5.12
  18  -2  -1    8.77    3.69
  18  -2   2   12.87    4.39
 -18  -2  -2    7.05    6.41
  18   2  -2   17.32    4.92
 -18  -2  -2    5.71    6.50
  18  -2   2   11.81    4.75
  18   2  -2   18.07    5.07
 -18   2   2    7.32    5.75
  18   2  -2    5.23    4.02
 -18  -2   2   10.72    5.70
  18  -2  -2    8.09    3.60
  18   2   2   19.47    5.88
 -18   2  -2   14.87    6.48
  18   2   2   17.99    5.22
  18   2   2   14.96    4.32
 -18   2  -2    0.84    5.41
  18  -2  -2   15.49    3.96
  18  -2   3   12.72    5.14
 -18  -2  -3    6.34    4.64
  18   2  -3   14.82    5.30
  18   2  -3   22.03    5.09
  18  -2   3   11.73    4.53
 -18  -2  -3    5.15    6.90
 -18  -2  -3    3.98    6.53
  18   2  -3    8.23    4.16
 -18   2   3    9.59    5.65
  18  -2  -3   13.59    4.50
  18   2   3   10.20    5.26
  18   2   3   10.57    5.93
  18  -2  -3   12.17    3.88
 -18   2  -3    9.82    6.74
 -18   2  -3   -6.70    5.95
  18   2   3    8.55    4.35
 -18  -2   3    2.54    5.33
 -19  -2   0   -0.73    5.83
  19   2   0   13.50    4.59
  19   2   0   15.89    4.94
  19  -2   0    4.39    3.73
  19   2   0    8.25    4.23
  19  -2   0    6.27    3.98
 -19  -2   0    9.39    6.65
 -19   2   0    0.85    5.43
 -19  -2  -1   -1.58    5.90
  19   2  -1   15.82    4.77
  19  -2   1    9.42    4.03
  19   2  -1   19.13    4.71
 -19   2   1   -2.53    5.42
  19  -2   1    5.11    4.42
 -19  -2  -1    3.41    6.38
  19   2  -1    6.31    4.10
 -19  -2   1    4.22    5.83
  19   2   1   15.65    4.77
  19  -2  -1    5.96    3.54
 -19   2  -1    1.95    5.65
  19   2   1    3.57    4.05
  19   2   1    9.28    4.71
  19  -2  -1    1.68    3.88
  19  -2   2    1.78    4.76
  19   2  -2   10.36    4.78
 -19  -2  -2   -6.51    6.18
  19  -2   2    9.79    4.25
 -19   2   2   -2.29    5.70
 -19  -2  -2   -1.59    6.43
  19   2  -2    7.83    4.12
 -19   2  -2    3.53    6.55
  19  -2  -2    5.86    3.66
  19   2   2    8.48    5.15
 -19   2  -2   -0.12    5.73
  19  -2  -2   13.27    4.36
  19   2   2    6.96    4.17
 -19  -2   2    6.43    5.78
  19   2   2    9.85    5.38
   0  -3   0    0.91    1.04
   0   3   0    1.12    1.21
   0  -3   0   -0.66    0.69
   0  -3  -1   82.82    2.69
   0   3   1   79.72    3.27
   0  -3   1   81.48    2.41
   0   3   1   76.79    2.58
   0   3   1   78.10    2.80
   0  -3  -1   76.93    2.91
   0   3   1   78.93    3.10
   0   3  -1   78.18    2.23
   0  -3   1   78.10    2.61
   0  -3   1   78.69    2.53
   0   3  -1   78.19    2.41
   0   3  -1   80.66    2.72
   0   3  -1   82.43    3.78
   0  -3   1   79.14    3.61
   0  -3  -1   80.73    3.21
   0  -3  -1   79.08    2.69
   0   3   1   83.78    2.79
   0  -3  -1   82.10    2.43
   0   3  -2    8.56    2.07
   0   3  -2   10.46    2.83
   0   3   2   12.32    2.12
   0  -3   2   12.13    1.76
   0  -3  -2    7.66    1.93
   0  -3   2   11.29    1.99
   0  -3  -2    9.93    1.73
   0  -3  -2    9.95    2.28
   0  -3  -2    9.28    1.84
   0   3   2    9.10    2.45
   0  -3   2   10.02    2.05
   0  -3  -3    3.47    2.39
   0   3  -3    4.51    2.77
   0  -3   3    4.61    1.68
   0  -3   3    3.33    1.84
   0   3   3    2.37    2.06
   0  -3   3    2.44    1.92
   0  -3  -3    2.43    1.84
   0  -3  -3    0.75    1.68
   0  -3  -3    2.39    1.67
   0  -3  -4   97.86    5.93
   0  -3  -4   91.60    4.23
   0  -3  -4   88.21    4.60
   0   3  -4   98.69    6.31
   0  -3   4   91.56    5.13
   0  -3   4   95.49    4.08
   0  -3  -4   91.03    3.66
   0  -3   4   93.43    4.49
   0   3   4   91.95    5.19
   0  -3   5   19.01    3.08
   0  -3  -5   23.55    3.53
   0  -3   5   22.18    4.22
   0  -3  -5   25.07    3.82
   0   3   5   27.27    3.67
   0  -3  -5   24.36    3.16
   0  -3   5   24.50    3.69
   0   3  -5   18.21    4.75
   0  -3  -5   23.25    4.81
   0   3   5   19.67    4.24
   0  -3   6    4.98    4.29
   0  -3  -6    6.45    3.13
   0  -3  -6    1.22    4.67
   0  -3   6    1.48    3.59
   0  -3  -6    2.43    3.76
   0  -3   6    8.35    4.02
   0   3  -6    5.15    5.23
   0   3   6    5.34    3.89
   0   3   6   11.75    5.07
   0  -3  -6    3.64    3.58
   0   3   7   10.68    3.35
   0  -3   7   15.19    4.20
   0  -3   7    9.77    4.62
   0   3   7    4.87    5.60
   0   3   7   10.00    4.54
   0  -3   7   12.73    5.41
   0  -3  -7   19.51    4.18
   0  -3  -7   17.47    5.81
   0  -3  -7   20.82    4.49
   0   3  -7   15.34    5.97
   0   3   8    2.76    4.91
   0   3  -8   12.74    6.63
   0  -3  -8   24.20    4.46
   0   3   8    1.96    6.69
   0   3   8   11.35    4.11
   0  -3   8   19.87    4.93
   0  -3   8   11.14    5.49
   0  -3   8   10.25    6.31
   0  -3  -8   14.45    6.36
   0  -3  -8   18.89    4.67
   0  -3   9    2.69    4.83
   0  -3  -9   15.19    4.53
   0   3   9   -9.53    7.87
   0   3  -9   10.14    7.22
   0  -3  -9    6.56    6.65
   0  -3  -9   10.19    3.83
   0   3   9   -8.58    5.18
   0  -3   9    2.84    5.97
   0  -3   9   -5.60    6.81
  -1  -3   0  188.17    3.22
  -1   3   0  188.24    3.30
   1  -3   0  186.29    3.50
  -1  -3   0  174.41    4.20
  -1   3   0  183.48    3.65
  -1   3   0  176.65    3.44
   1   3   0  193.24    3.96
  -1  -3   0  184.71    3.87
   1  -3   0  184.22    3.30
   1   3   0  183.85    4.41
   1  -3   0  187.35    3.67
  -1   3   0  188.87    4.72
  -1  -3  -1  134.48    3.66
  -1  -3  -1  137.65    3.26
  -1  -3  -1  136.17    3.58
   1   3  -1  139.38    4.71
   1  -3   1  141.46    3.27
   1   3  -1  136.77    3.69
  -1   3   1  135.80    4.33
  -1  -3  -1  132.57    3.95
   1  -3   1  134.50    3.45
  -1  -3  -1  132.54    3.86
   1   3   1  142.40    4.11
   1  -3  -1  143.27    3.45
   1   3   1  136.54    3.95
  -1  -3   1  140.28    4.47
  -1  -3   1  138.72    3.21
   1   3   1  140.03    3.87
  -1   3  -1  132.76    3.27
   1  -3  -1  140.22    3.75
   1   3   1  145.17    3.23
  -1   3  -1  141.94    4.95
   1   3   1  136.87    3.55
   1   3   1  133.59    3.83
  -1  -3   1  144.54    3.23
  -1  -3   1  140.90    3.58
  -1   3  -1  135.30    3.12
   1  -3  -1  143.93    3.19
  -1  -3   1  142.20    3.46
  -1  -3  -2   28.43    2.96
   1   3  -2   29.56    2.80
   1  -3   2   32.21    2.32
  -1  -3  -2   27.34    2.23
  -1  -3  -2   24.53    2.88
  -1   3   2   29.94    3.40
   1  -3   2   27.66    2.67
  -1  -3  -2   29.29    2.59
  -1   3   2   27.50    2.69
   1   3  -2   27.35    3.56
   1  -3   2   28.53    2.60
  -1  -3   2   27.03    2.70
   1   3   2   34.53    3.11
   1  -3  -2   26.47    2.06
  -1   3  -2   25.25    3.65
   1  -3  -2   27.11    2.35
  -1  -3   2   30.14    2.17
   1   3   2   25.34    3.12
  -1  -3   2   28.22    2.48
   1  -3  -2   31.81    3.22
   1  -3  -2   26.19    2.61
  -1  -3  -3   58.09    3.22
   1   3  -3   57.73    3.70
  -1  -3  -3   58.62    2.72
  -1  -3  -3   57.93    4.05
   1  -3   3   58.54    2.97
   1  -3   3   53.83    3.28
   1  -3   3   52.83    3.66
   1   3  -3   57.63    4.59
  -1  -3  -3   53.37    3.55
  -1   3   3   53.88    3.64
  -1   3   3   54.95    4.43
   1   3   3   56.08    3.77
   1  -3  -3   51.71    2.54
  -1  -3   3   51.68    3.53
   1  -3  -3   54.50    2.98
  -1  -3   3   55.44    2.80
   1  -3  -3   50.30    4.13
  -1  -3   3   48.10    3.15
   1  -3  -3   53.16    3.30
  -1   3  -3   52.94    4.47
   1  -3   4   54.37    3.81
   1   3  -4   45.76    5.09
   1  -3   4   53.97    3.55
  -1  -3  -4   50.26    4.08
   1  -3   4   46.87    4.27
  -1  -3  -4   51.79    3.67
  -1  -3  -4   53.27    5.01
  -1  -3  -4   49.04    3.12
  -1   3   4   46.45    4.42
   1  -3  -4   50.11    4.92
  -1  -3   4   49.22    3.72
   1  -3  -4   46.12    3.99
   1  -3  -4   52.74    3.01
   1   3   4   50.14    4.57
   1  -3  -4   51.83    3.60
  -1   3  -4   52.96    5.39
   1   3   4   53.62    3.60
  -1  -3   4   45.56    4.22
  -1  -3   4   51.41    3.35
   1  -3   5   52.35    5.47
  -1  -3  -5   52.10    3.71
  -1   3   5   57.07    5.77
  -1  -3  -5   50.98    6.04
  -1  -3  -5   50.51    5.00
   1  -3   5   54.45    4.87
   1   3  -5   49.20    6.22
  -1  -3  -5   52.58    4.48
   1  -3   5   57.62    4.34
  -1  -3   5   55.77    4.12
   1  -3  -5   57.14    4.54
   1   3   5   47.14    5.65
   1  -3  -5   55.46    4.92
   1  -3  -5   47.88    3.48
  -1   3  -5   55.86    6.39
  -1  -3   5   56.91    5.51
  -1  -3   5   53.23    4.76
   1  -3  -5   51.82    5.93
   1   3   5   58.39    4.70
   1  -3   6   11.30    4.35
  -1   3   6   11.16    4.94
  -1  -3  -6   10.69    5.37
   1   3  -6   14.71    5.52
   1  -3   6   11.77    4.75
  -1  -3  -6   13.33    3.93
  -1   3   6   11.81    4.17
   1  -3   6    8.98    3.78
  -1  -3  -6   11.18    4.16
  -1  -3   6   17.29    4.43
   1   3   6    7.34    3.03
  -1  -3   6    5.54    4.21
   1   3   6   13.18    4.15
   1  -3  -6    7.84    3.58
  -1  -3   6    5.96    3.46
   1   3   6   11.53    4.88
   1  -3  -6    9.65    5.21
  -1   3  -6   12.61    5.50
   1  -3  -6   12.18    4.03
   1  -3   7   43.92    5.84
  -1   3   7   56.83    5.79
  -1   3   7   49.34    7.35
   1  -3   7   52.56    5.37
  -1  -3  -7   52.04    7.38
  -1  -3  -7   56.91    5.87
   1   3  -7   53.82    7.83
  -1  -3  -7   56.35    5.20
   1  -3   7   52.28    7.16
   1   3   7   52.35    5.75
  -1  -3   7   50.11    5.33
  -1  -3   7   48.94    6.97
  -1  -3   7   55.12    6.10
   1  -3  -7   57.84    5.05
   1  -3  -7   56.99    4.12
   1  -3  -7   60.20    5.46
   1  -3  -7   57.18    7.42
   1   3   7   53.80    7.38
  -1   3  -7   46.94    7.60
   1   3   7   54.07    4.51
   1   3  -8   22.67    7.42
   1  -3   8   16.81    4.78
   1  -3   8   12.11    6.57
  -1  -3  -8   16.09    3.42
  -1  -3  -8   24.82    4.63
  -1   3   8   11.97    7.12
   1  -3   8    7.64    5.50
  -1  -3  -8   22.44    6.75
  -1  -3  -8   31.18    5.39
  -1   3   8    9.68    5.19
  -1   3  -8   12.90    6.72
   1   3   8    8.68    7.09
  -1  -3   8   16.22    5.73
   1  -3  -8   26.11    4.50
   1   3   8   10.05    5.14
  -1  -3   8   15.81    4.93
   1  -3  -8   24.38    3.59
   1  -3  -8   26.68    4.77
  -1  -3   8   22.94    6.74
   1   3   8   10.48    3.75
   1  -3  -8   20.40    6.76
  -1  -3  -9   14.99    4.12
  -1   3   9   -8.61    6.42
   1   3  -9   11.70    7.26
  -1  -3  -9   11.90    6.80
   1  -3   9   -4.35    5.66
  -1   3   9   -5.85    7.61
   1  -3   9   -0.88    4.66
  -1  -3  -9   10.73    4.51
   1  -3   9   -3.48    6.81
   1   3   9  -14.83    7.47
   1  -3  -9   10.64    3.89
  -1  -3   9    4.37    7.17
  -1  -3   9    0.07    4.69
   1   3   9   -6.31    5.54
  -1   3  -9   15.44    7.49
   1  -3  -9   15.39    4.31
   1  -3  -9    3.93    6.48
  -1  -3   9    3.28    5.93
  -2   3   0  176.91    3.79
  -2  -3   0  189.68    3.39
  -2  -3   0  175.34    3.45
   2   3   0  184.29    3.42
  -2  -3   0  181.19    4.29
   2   3   0  188.26    4.39
   2  -3   0  177.11    4.67
   2  -3   0  184.88    3.87
   2  -3   0  188.25    3.46
  -2   3   0  177.76    3.37
   2   3   0  184.63    3.58
  -2   3   0  176.32    5.01
   2   3  -1  125.40    3.83
   2   3  -1  126.82    3.29
   2  -3   1  121.33    3.27
   2  -3   1  120.52    3.58
  -2  -3  -1  125.93    3.67
  -2  -3  -1  113.96    3.67
   2   3  -1  117.02    4.49
  -2   3   1  125.71    4.46
  -2  -3  -1  119.46    3.98
  -2  -3  -1  120.78    3.22
  -2   3  -1  122.83    3.12
  -2  -3   1  112.93    4.18
  -2   3  -1  114.18    2.83
   2  -3  -1  121.07    3.29
   2   3   1  117.93    3.61
  -2   3  -1  112.84    3.13
   2  -3  -1  126.69    3.02
   2  -3  -1  122.05    3.62
   2   3   1  124.43    4.09
  -2   3  -1  126.22    5.17
   2   3   1  119.17    3.69
  -2  -3  -2   86.61    3.02
   2  -3   2   88.12    3.12
   2  -3   2   87.38    3.44
  -2  -3  -2   83.70    3.74
   2   3  -2   80.40    4.48
  -2   3   2   87.27    4.38
   2  -3   2   82.57    3.46
  -2  -3  -2   84.38    3.85
  -2  -3  -2   82.35    3.45
   2   3  -2   86.83    3.72
  -2   3   2   86.08    3.36
   2  -3  -2   91.74    3.18
   2   3   2   94.06    4.07
  -2  -3   2   94.76    3.00
   2  -3  -2   90.34    4.32
   2   3   2   88.61    4.06
   2  -3  -2   93.93    3.52
  -2  -3   2   94.64    3.39
  -2   3  -2   87.24    4.73
   2  -3  -2   92.88    2.82
   2  -3   3   27.63    2.75
  -2  -3  -3   22.58    3.33
  -2  -3  -3   24.19    3.06
  -2   3   3   20.27    3.66
   2   3  -3   25.18    3.83
   2  -3   3   24.04    2.58
  -2  -3  -3   20.85    2.31
  -2   3   3   20.33    2.99
   2   3  -3   22.32    3.16
   2  -3   3   22.63    3.10
  -2  -3  -3   21.65    2.69
   2   3   3   25.05    2.51
  -2   3  -3   24.39    4.02
   2  -3  -3   20.92    2.41
   2  -3  -3   24.73    3.52
  -2  -3   3   23.16    2.69
  -2  -3   3   25.85    2.40
   2  -3  -3   23.64    2.10
   2   3   3   24.37    1.95
  -2  -3   3   23.53    3.17
   2  -3  -3   24.93    2.75
   2   3   3   22.56    3.45
   2   3  -4   62.06    4.64
   2  -3   4   64.62    4.77
  -2   3   4   66.24    4.75
   2  -3   4   60.30    4.17
   2  -3   4   62.92    3.78
  -2  -3  -4   64.60    4.52
   2   3  -4   67.91    5.73
  -2  -3  -4   69.32    5.39
  -2  -3  -4   69.50    3.41
  -2  -3  -4   60.87    4.01
   2   3   4   73.65    4.00
  -2  -3   4   70.34    4.07
  -2  -3   4   64.66    3.53
  -2   3  -4   66.30    5.68
   2   3   4   63.69    4.89
   2  -3  -4   63.37    5.31
   2  -3  -4   65.46    4.10
   2  -3  -4   64.39    3.15
   2  -3  -4   68.37    3.74
  -2  -3   4   64.14    4.65
  -2  -3  -5   30.65    3.85
  -2  -3  -5   34.09    4.33
   2  -3   5   34.36    4.30
   2   3  -5   34.61    5.85
  -2  -3  -5   33.77    3.46
   2  -3   5   32.81    3.83
   2  -3   5   37.67    4.88
  -2   3   5   40.33    5.15
  -2  -3  -5   35.21    5.56
   2   3   5   35.19    4.93
   2  -3  -5   30.06    3.24
   2  -3  -5   35.89    3.75
   2   3   5   31.72    3.46
  -2  -3   5   37.09    4.05
  -2  -3   5   34.21    3.85
   2  -3  -5   30.33    5.48
  -2  -3   5   32.22    4.48
   2  -3  -5   34.19    4.08
  -2   3  -5   32.90    5.88
   2   3   5   33.62    3.97
   2  -3   6   34.06    5.08
  -2   3   6   35.07    5.92
  -2  -3  -6   30.45    3.89
   2  -3   6   29.92    4.46
   2   3  -6   30.77    6.66
  -2  -3  -6   33.28    6.52
  -2  -3  -6   34.09    5.14
   2  -3   6   32.79    5.81
  -2  -3  -6   32.55    4.73
   2  -3  -6   32.12    6.43
   2   3   6   36.14    4.74
  -2   3  -6   33.07    6.66
   2   3   6   34.53    5.95
   2  -3  -6   35.05    4.17
   2  -3  -6   37.51    4.73
  -2  -3   6   34.85    4.18
   2  -3  -6   40.98    3.83
   2   3   6   37.04    3.84
  -2  -3   6   35.57    4.95
  -2  -3   6   28.67    5.35
   2  -3   7   16.47    4.34
   2  -3   7   17.80    6.00
  -2  -3  -7   20.09    6.23
   2  -3   7   14.18    4.90
  -2  -3  -7   27.75    4.90
  -2  -3  -7   21.71    4.23
  -2   3   7   14.96    4.44
  -2   3   7   17.85    6.02
   2   3  -7   22.75    6.91
   2  -3  -7   23.33    4.28
   2   3   7   15.18    3.56
   2   3   7   19.15    6.12
  -2  -3   7   17.73    4.94
  -2   3  -7   28.13    6.62
  -2  -3   7   17.27    5.37
   2  -3  -7   19.89    6.21
   2  -3  -7   21.55    3.49
   2  -3  -7   23.13    3.99
   2   3   7   16.79    4.79
  -2  -3   7   15.84    3.80
   2  -3   8    3.03    5.34
  -2  -3  -8   13.95    4.12
  -2  -3  -8   17.81    3.76
   2  -3   8    8.35    6.58
  -2   3   8    8.75    5.12
  -2  -3  -8   14.93    4.73
  -2   3   8    3.69    6.74
  -2  -3  -8   16.09    6.54
   2  -3   8    2.79    4.27
   2   3  -8   18.21    7.15
   2  -3  -8   21.51    6.98
   2  -3  -8   16.64    4.24
  -2  -3   8    5.51    5.23
  -2  -3   8    7.76    4.46
   2   3   8    5.23    5.16
  -2  -3   8   18.89    6.59
   2  -3  -8   17.05    3.37
   2   3   8   11.50    3.78
   2   3   8    6.47    6.91
  -2   3  -8   11.37    6.74
   2  -3  -8   19.07    4.19
   2  -3   9  -10.75    5.64
   2  -3   9   -8.32    7.14
  -2   3   9    6.84    6.18
  -2  -3  -9   16.14    4.43
  -2  -3  -9   17.36    4.87
  -2   3   9   -7.03    7.61
   2  -3   9   -3.55    4.72
  -2  -3  -9    2.96    6.30
   2   3  -9    8.71    6.91
   2   3   9   -3.84    5.57
  -2   3  -9   10.22    6.92
  -2  -3   9    0.63    4.75
  -2  -3   9    0.53    6.90
  -2  -3   9   -2.23    5.63
   2  -3  -9   10.62    4.58
   2   3   9  -10.24    7.89
   2  -3  -9    3.07    6.54
  -3  -3   0  182.43    4.40
   3   3   0  191.56    4.06
  -3  -3   0  185.96    3.77
  -3   3   0  192.91    4.35
   3  -3   0  192.53    4.34
   3   3   0  193.78    5.03
  -3  -3   0  184.85    4.27
  -3   3   0  182.05    3.70
  -3   3   0  199.51    5.72
   3   3   0  197.68    3.85
   3   3   0  180.27    4.16
   3  -3   0  186.90    5.22
   3  -3   0  191.32    3.76
  -3  -3  -1   69.68    3.53
  -3   3   1   77.45    3.87
   3  -3   1   70.82    2.70
  -3  -3  -1   68.35    2.17
   3  -3   1   72.62    3.06
   3  -3   1   64.40    2.89
  -3  -3  -1   70.62    3.18
   3   3  -1   67.29    2.66
   3   3  -1   67.61    3.21
  -3  -3  -1   70.76    2.78
   3  -3  -1   76.10    2.40
   3  -3  -1   72.77    3.00
   3   3   1   70.16    3.75
   3   3   1   70.91    2.21
  -3  -3   1   62.93    3.45
   3   3   1   70.97    2.65
  -3   3  -1   71.81    4.51
  -3   3  -1   71.18    2.76
  -3  -3  -2   95.19    4.01
   3   3  -2   97.08    3.88
  -3  -3  -2   94.16    3.88
   3   3  -2   92.47    4.58
   3   3  -2   94.78    3.37
  -3  -3  -2   93.92    3.64
   3  -3   2   89.11    3.68
   3  -3   2   94.41    3.66
  -3  -3  -2   96.92    3.18
   3  -3   2   97.18    3.32
  -3   3   2   95.94    4.63
  -3   3  -2   93.83    4.87
   3  -3  -2   94.32    3.19
   3   3   2  100.57    2.71
   3  -3  -2   97.28    2.84
  -3  -3   2   97.83    3.44
   3   3   2  101.88    3.23
   3  -3  -2   94.56    3.52
   3   3   2   97.92    4.28
   3   3   2   93.54    3.98
  -3   3  -2   94.69    3.37
   3  -3  -2   94.82    4.43
   3   3  -3   61.25    3.93
  -3   3   3   62.90    3.68
  -3  -3  -3   62.70    4.20
   3  -3   3   63.22    3.99
  -3  -3  -3   63.38    3.54
  -3  -3  -3   61.24    3.91
   3   3  -3   60.74    4.71
  -3  -3  -3   63.20    2.99
  -3   3   3   64.94    4.80
   3  -3   3   64.32    3.29
   3  -3   3   66.50    3.72
   3  -3  -3   69.61    4.58
  -3  -3   3   65.64    3.02
   3  -3  -3   63.61    3.08
   3   3   3   62.63    4.30
  -3  -3   3   64.34    3.94
  -3  -3   3   67.19    3.39
   3  -3  -3   66.99    2.70
   3   3   3   66.92    2.66
   3   3   3   63.44    3.24
   3  -3  -3   65.07    3.42
  -3   3  -3   61.55    4.90
  -3  -3  -4   64.35    3.44
   3   3  -4   65.63    5.63
   3  -3   4   65.44    4.91
  -3  -3  -4   67.96    5.39
   3   3  -4   67.69    4.71
  -3   3   4   66.29    5.65
   3  -3   4   57.61    4.23
  -3  -3  -4   65.65    4.65
  -3  -3  -4   68.67    4.24
  -3   3   4   68.25    4.70
   3  -3   4   65.78    3.85
   3   3   4   69.66    4.00
   3   3   4   63.11    5.14
  -3   3  -4   69.47    5.83
   3  -3  -4   65.23    5.53
   3   3   4   70.16    3.27
   3  -3  -4   68.00    4.05
  -3  -3   4   69.95    4.08
   3  -3  -4   64.61    3.65
  -3  -3   4   70.39    4.81
  -3  -3   4   71.41    3.62
   3  -3  -4   70.09    3.11
  -3  -3  -5   16.24    4.05
   3  -3   5   20.02    3.84
   3  -3   5   15.66    3.36
  -3  -3  -5   21.00    4.87
   3  -3   5   15.21    4.26
  -3  -3  -5   21.82    3.74
   3   3  -5   18.38    3.94
   3   3  -5   21.24    5.33
  -3  -3  -5   19.37    3.18
  -3   3   5   16.93    4.20
   3  -3  -5   21.78    3.23
   3  -3  -5   18.74    3.51
   3  -3  -5   13.29    4.61
  -3   3  -5   19.06    5.31
   3   3   5   18.04    2.90
  -3  -3   5   22.96    3.81
  -3  -3   5   17.79    3.89
   3   3   5   21.70    3.76
   3  -3  -5   18.72    2.81
   3   3   5   18.11    4.44
  -3  -3   5   19.15    3.17
   3  -3   6   48.05    6.98
  -3   3   6   48.13    6.75
   3   3  -6   41.56    7.25
   3  -3   6   41.96    5.32
   3  -3   6   41.30    4.70
  -3  -3  -6   43.40    5.07
  -3  -3  -6   43.68    4.30
  -3  -3  -6   49.08    5.85
  -3  -3  -6   45.14    7.13
   3  -3  -6   41.95    5.09
   3   3   6   47.89    6.43
  -3  -3   6   47.50    4.64
  -3  -3   6   40.73    5.10
  -3   3  -6   43.24    7.25
   3  -3  -6   44.53    4.69
   3   3   6   41.50    4.36
  -3  -3   6   38.48    5.84
   3  -3  -6   42.46    3.72
   3   3   6   47.94    5.65
   3  -3  -6   48.62    7.28
  -3  -3  -7    6.87    4.34
  -3  -3  -7    5.87    3.72
   3   3  -7    1.89    5.63
  -3  -3  -7    1.15    5.11
   3  -3   7   -1.83    5.24
   3  -3   7    2.88    4.46
   3  -3   7    2.39    3.80
  -3  -3  -7    1.68    2.96
  -3   3   7   -3.97    5.11
  -3   3   7   -4.03    3.80
   3  -3  -7    2.86    3.49
   3   3   7   -4.37    4.01
   3  -3  -7    5.73    3.41
   3   3   7   -4.37    5.09
  -3  -3   7    0.00    4.21
  -3  -3   7    1.47    4.47
   3   3   7   -0.55    3.02
  -3  -3   7    2.56    3.33
  -3   3  -7    7.19    5.49
   3  -3  -7    1.89    2.82
   3  -3  -7   -3.80    4.89
   3  -3   8    7.22    4.52
  -3  -3  -8   19.31    4.92
  -3  -3  -8   29.76    4.64
  -3  -3  -8   13.64    6.32
   3  -3   8    0.83    6.46
   3   3  -8   17.03    7.06
  -3   3   8    2.19    6.74
   3  -3   8    6.43    5.54
  -3   3  -8   14.88    6.76
  -3  -3   8    5.68    5.20
   3   3   8   15.15    5.33
   3  -3  -8   19.35    4.07
   3  -3  -8   10.11    6.22
   3   3   8   -0.24    6.56
   3  -3  -8   13.30    4.06
  -3  -3   8    5.26    3.94
   3   3   8    5.10    3.63
   3  -3  -8   15.81    3.32
  -3  -3   8   15.55    6.19
  -3   3   9   -0.47    7.69
  -3  -3  -9   18.00    5.13
   3  -3   9    0.39    4.83
  -3   3   9   14.56    6.66
   3   3  -9    9.80    7.34
  -3  -3  -9   14.16    6.87
   3  -3   9    2.41    7.77
  -3  -3  -9   20.07    4.59
   3  -3   9   -0.40    6.13
  -3   3  -9   25.07    7.83
   3   3   9   -7.21    7.92
   3  -3  -9    7.87    7.01
  -3  -3   9    7.96    7.09
   3   3   9    6.96    5.55
  -3  -3   9    5.53    4.82
  -3  -3   9   14.16    6.14
   4  -3   0  429.72    7.23
   4   3   0  435.28    8.64
   4   3   0  412.36    7.51
   4  -3   0  427.33    7.96
  -4   3   0  425.34    7.91
   4   3   0  444.16    7.39
  -4   3   0  421.10    9.11
  -4  -3   0  422.39    7.91
  -4  -3  -1  348.88    6.53
   4   3  -1  369.01    6.60
  -4  -3  -1  346.13    7.40
   4   3  -1  359.28    6.75
   4  -3   1  355.86    6.65
  -4   3   1  356.73    8.12
   4  -3   1  342.18    6.85
  -4  -3  -1  357.63    7.09
   4   3  -1  365.41    7.57
   4   3   1  368.95    6.49
  -4   3  -1  369.74    7.17
  -4   3  -1  372.52    8.72
   4  -3  -1  367.30    7.31
   4   3   1  372.43    6.83
   4   3   1  366.10    7.97
   4   3  -2  113.40    3.66
   4   3  -2  106.45    4.87
   4  -3   2  115.85    3.63
   4  -3   2  112.08    3.97
   4   3  -2  116.18    4.34
  -4   3   2  116.56    5.03
  -4  -3  -2  117.68    4.10
  -4  -3  -2  115.50    3.57
  -4  -3  -2  116.61    4.50
   4   3   2  125.15    4.82
  -4   3  -2  119.34    5.31
   4   3   2  119.97    3.18
  -4   3  -2  117.15    3.91
   4   3   2  118.21    3.64
   4  -3  -2  116.51    4.91
   4  -3  -2  118.55    3.88
   4  -3  -2  116.41    3.55
   4  -3  -2  113.88    3.16
  -4  -3  -3  104.46    3.75
   4   3  -3  105.75    4.83
  -4  -3  -3  100.71    4.82
  -4   3   3  104.61    5.70
  -4   3   3  102.68    4.47
  -4  -3  -3  106.72    5.03
   4   3  -3  103.28    5.73
   4  -3   3  106.03    4.89
   4  -3   3  103.79    3.93
   4  -3   3  102.06    4.37
  -4  -3  -3  108.48    4.40
  -4   3  -3  105.65    4.28
   4   3   3  105.78    4.04
   4  -3  -3  101.72    3.76
  -4  -3   3  105.98    4.12
   4   3   3  100.46    5.11
   4  -3  -3  102.74    4.15
   4   3   3  103.67    3.32
  -4  -3   3  103.83    4.71
   4  -3  -3   98.63    5.41
   4  -3  -3  102.93    3.21
  -4   3  -3  103.49    5.80
  -4  -3  -4   61.47    4.34
  -4  -3  -4   65.36    5.28
   4   3  -4   56.92    4.63
   4  -3   4   64.96    4.32
  -4   3   4   64.44    5.71
   4  -3   4   64.19    3.89
   4  -3   4   68.64    5.13
  -4   3   4   60.93    4.58
   4   3  -4   64.08    5.81
  -4  -3  -4   58.52    3.54
  -4  -3  -4   62.20    4.83
  -4  -3   4   66.82    4.18
  -4   3  -4   65.62    5.94
  -4  -3   4   66.52    4.93
   4  -3  -4   67.02    3.67
   4   3   4   76.69    4.25
  -4   3  -4   68.90    4.40
   4  -3  -4   70.18    4.09
   4  -3  -4   65.87    5.52
   4   3   4   66.39    5.31
   4   3   4   67.98    3.39
  -4  -3   4   71.29    3.67
   4  -3  -4   65.86    3.10
   4  -3   5   42.13    4.92
   4   3  -5   44.41    5.41
  -4   3   5   47.85    5.68
   4  -3   5   47.04    6.01
   4  -3   5   45.64    4.40
   4   3  -5   42.03    6.68
  -4  -3  -5   46.42    6.05
  -4   3   5   44.28    6.34
  -4  -3  -5   46.51    3.97
  -4  -3  -5   39.25    4.82
  -4  -3  -5   47.90    5.28
  -4  -3   5   47.07    4.75
   4  -3  -5   49.88    6.39
  -4   3  -5   46.59    6.62
   4   3   5   46.05    3.80
  -4  -3   5   47.91    4.06
   4  -3  -5   44.43    3.95
   4   3   5   48.36    4.91
  -4  -3   5   46.44    5.36
   4  -3  -5   42.27    4.39
   4   3   5   41.38    6.14
   4  -3   6   34.73    5.20
  -4   3   6   46.84    6.37
   4  -3   6   33.71    4.56
  -4  -3  -6   44.06    5.87
  -4  -3  -6   40.58    6.81
   4   3  -6   45.62    7.61
  -4  -3  -6   37.06    4.23
  -4  -3  -6   39.31    5.03
   4  -3   6   46.83    7.07
  -4  -3   6   33.47    4.18
   4  -3  -6   36.63    3.57
   4   3   6   39.80    4.35
  -4  -3   6   43.27    5.32
   4   3   6   44.97    5.12
   4  -3  -6   40.51    7.22
   4   3   6   41.31    6.44
  -4   3  -6   40.87    7.32
   4  -3  -6   33.20    4.37
   4  -3  -6   38.24    4.91
  -4  -3   6   37.45    5.67
  -4  -3  -7   24.47    6.29
   4  -3   7   17.21    4.41
   4  -3   7   17.98    6.30
   4  -3   7   10.53    4.89
  -4  -3  -7   25.97    5.14
  -4   3   7   18.46    6.14
  -4   3   7   23.29    6.12
  -4  -3  -7   21.32    4.28
   4   3  -7   26.99    7.12
  -4   3  -7   29.28    6.95
   4  -3  -7   27.58    3.96
  -4  -3   7   20.22    4.86
   4   3   7   19.26    4.63
   4   3   7   24.33    3.74
  -4  -3   7   18.83    3.73
  -4  -3   7   17.25    5.36
   4   3   7   14.90    5.98
   4  -3  -7   19.54    6.42
   4  -3  -7   25.74    3.39
   4  -3  -7   23.38    4.16
  -4   3   8   -5.99    6.20
   4  -3   8  -12.44    4.88
   4  -3   8    0.56    4.25
   4  -3   8   -2.96    6.62
   4   3  -8    3.09    6.82
  -4  -3  -8    9.70    4.82
  -4   3   8   11.29    6.16
  -4  -3  -8    4.17    4.10
  -4  -3  -8    4.46    5.80
  -4   3   8   -0.57    4.80
   4  -3  -8    3.47    3.51
   4   3   8   -3.68    6.42
  -4  -3   8   -5.91    4.85
   4  -3  -8    7.71    3.02
   4   3   8    2.97    3.55
  -4  -3   8    2.21    3.92
  -4   3  -8   10.24    6.50
   4  -3  -8    1.36    6.22
   4  -3  -8    5.61    3.92
  -4  -3   8   -1.38    5.50
   4   3   8    2.08    4.72
   5  -3   0  127.49    3.47
  -5  -3   0  120.94    3.96
   5   3   0  128.62    3.33
   5  -3   0  123.61    3.86
  -5   3   0  129.88    3.94
   5   3   0  128.02    3.58
   5  -3   0  125.49    3.19
   5   3   0  123.87    4.52
  -5   3   0  129.68    4.93
  -5  -3   0  121.80    3.65
  -5   3   1  100.79    4.26
   5   3  -1  102.23    4.10
   5  -3   1  107.56    3.33
   5   3  -1  104.47    3.37
  -5   3   1  106.76    3.73
  -5  -3  -1  102.07    4.13
  -5  -3  -1  102.77    3.29
  -5  -3  -1  105.96    3.80
   5   3  -1  109.11    3.13
   5  -3   1  104.09    3.64
  -5   3  -1  106.85    3.78
   5   3   1  108.71    3.45
  -5   3  -1  109.55    5.04
   5   3   1  105.14    4.48
   5  -3  -1  104.96    3.67
   5   3   1  107.55    3.05
   5   3  -2  116.65    3.81
  -5  -3  -2  121.49    4.34
   5  -3   2  116.11    3.75
  -5  -3  -2  119.63    4.80
  -5   3   2  115.29    5.02
  -5  -3  -2  122.58    3.69
   5   3  -2  114.68    4.95
   5  -3   2  124.18    4.20
   5   3  -2  114.37    4.42
   5  -3  -2  120.33    3.35
  -5   3  -2  119.49    4.21
   5   3   2  123.56    3.88
   5   3   2  127.28    3.42
   5  -3  -2  120.36    5.05
   5  -3  -2  115.10    3.98
   5   3   2  120.42    4.88
  -5   3  -2  124.63    5.43
  -5  -3  -3  120.58    5.36
  -5   3   3  121.29    6.14
  -5  -3  -3  120.53    4.86
   5  -3   3  125.97    5.36
  -5  -3  -3  119.68    4.15
   5   3  -3  115.84    6.15
   5  -3   3  126.07    4.36
   5   3  -3  112.47    5.11
  -5   3   3  121.49    4.73
   5  -3   3  118.90    4.84
   5   3  -3  118.08    4.40
  -5   3  -3  129.51    4.87
   5  -3  -3  117.63    5.88
   5   3   3  126.56    4.52
   5  -3  -3  125.14    4.52
   5  -3  -3  120.03    4.09
  -5   3  -3  124.20    6.26
   5   3   3  117.76    5.68
  -5   3  -3  123.06    4.42
  -5  -3   3  119.52    4.49
   5  -3  -3  122.14    3.60
   5   3   3  122.81    3.84
   5  -3   4   23.59    4.08
  -5  -3  -4   26.45    3.93
   5   3  -4   28.92    5.28
  -5   3   4   28.03    4.16
   5   3  -4   27.24    3.97
  -5   3   4   27.51    5.02
  -5  -3  -4   30.58    3.25
  -5  -3  -4   30.35    3.64
   5  -3   4   25.51    3.34
  -5  -3  -4   26.67    4.55
   5  -3   4   28.95    3.20
   5  -3  -4   26.41    3.11
   5  -3  -4   27.92    2.61
  -5   3  -4   32.29    3.41
   5   3   4   27.92    4.34
   5   3   4   26.39    2.96
  -5  -3   4   25.07    3.85
  -5  -3   4   26.39    3.31
   5  -3  -4   29.16    4.86
  -5   3  -4   32.45    3.83
  -5   3  -4   28.21    4.99
  -5  -3   4   27.54    2.98
   5   3   4   31.91    3.44
   5  -3  -4   26.11    3.42
   5  -3   5    5.39    3.14
  -5   3   5   14.33    4.27
   5   3  -5   17.31    5.50
   5  -3   5   12.18    3.56
  -5   3   5   12.76    5.03
  -5  -3  -5   10.63    3.89
   5  -3   5   14.21    4.58
  -5  -3  -5   10.25    4.38
  -5  -3  -5   14.65    3.51
   5   3  -5   10.46    3.98
  -5  -3  -5   13.62    4.71
   5   3   5   13.52    4.55
   5  -3  -5   16.93    3.16
   5  -3  -5   14.79    3.28
  -5  -3   5   13.57    3.66
   5   3   5   21.51    3.88
  -5   3  -5   16.72    5.30
   5   3   5   17.17    3.04
  -5  -3   5   15.45    3.17
   5  -3  -5   16.70    4.95
  -5   3  -5   15.59    4.11
  -5  -3   5   15.44    4.04
  -5  -3  -6   38.05    5.05
  -5   3   6   41.73    6.26
  -5  -3  -6   40.71    6.71
   5  -3   6   35.15    5.20
  -5   3   6   36.45    6.94
  -5  -3  -6   39.76    4.30
   5   3  -6   46.28    7.82
   5  -3   6   42.09    6.59
  -5  -3  -6   46.62    6.02
   5  -3   6   33.15    4.46
  -5  -3   6   39.17    5.25
   5   3   6   35.07    4.91
   5   3   6   33.89    3.99
   5   3   6   38.47    6.32
   5  -3  -6   35.53    4.30
   5  -3  -6   34.28    4.42
  -5   3  -6   40.77    7.18
  -5   3  -6   38.82    5.12
   5  -3  -6   35.58    3.46
  -5  -3   6   29.43    4.11
   5  -3  -6   34.32    6.97
  -5  -3   6   35.42    5.70
  -5   3   7    5.09    5.46
  -5  -3  -7   12.66    4.08
  -5  -3  -7    7.74    5.49
   5   3  -7   13.98    6.26
   5  -3   7    3.82    3.90
  -5   3   7   10.10    5.78
  -5  -3  -7   12.22    4.97
   5  -3   7   -3.07    5.47
   5  -3   7    5.71    4.54
  -5  -3  -7   10.81    3.32
   5  -3  -7    9.89    3.33
  -5   3  -7   14.59    4.22
  -5   3  -7   10.36    5.87
  -5  -3   7   10.42    5.05
   5  -3  -7    7.68    5.93
  -5  -3   7   11.58    4.69
   5  -3  -7   12.14    2.91
   5   3   7   14.23    4.50
  -5  -3   7    9.29    3.59
   5   3   7   13.30    3.45
   5   3   7    7.77    5.56
   5  -3  -7    9.83    3.52
  -5  -3  -8   10.09    4.37
  -5  -3  -8   10.24    4.97
  -5   3   8    0.38    6.43
   5   3  -8   -0.34    6.25
  -5  -3  -8   -0.83    5.56
  -5  -3  -8    5.43    3.32
   5  -3   8  -10.87    6.67
   5  -3   8   -3.91    4.16
   5  -3   8   -1.72    5.28
  -5   3   8    9.53    6.04
   5   3   8  -10.27    6.13
   5  -3  -8    0.16    3.29
   5  -3  -8    0.86    5.86
   5   3   8    0.38    4.74
   5   3   8    5.86    3.67
   5  -3  -8    3.98    2.87
  -5   3  -8   12.07    6.81
  -5  -3   8   -1.00    3.68
   5  -3  -8    5.72    3.74
  -5  -3   8    3.31    5.87
  -5  -3   8    3.15    5.27
   6   3   0  322.52    6.24
  -6   3   0  310.00    7.79
   6  -3   0  322.55    6.12
   6   3   0  318.44    6.49
  -6  -3   0  327.32    6.94
  -6   3   0  320.00    6.96
   6  -3   0  312.70    6.90
  -6  -3   0  321.79    6.55
   6   3   0  310.00    7.51
   6  -3   0  323.69    6.28
  -6   3   1  137.47    5.01
  -6  -3  -1  134.09    4.31
   6   3  -1  139.15    3.71
   6  -3   1  134.10    4.22
   6   3  -1  133.16    4.77
   6  -3   1  134.51    3.80
  -6  -3  -1  130.64    4.65
   6   3  -1  134.70    3.96
  -6   3   1  136.23    4.34
   6  -3  -1  136.46    3.34
  -6   3  -1  132.51    4.33
   6   3   1  135.64    4.00
   6   3   1  137.71    5.19
   6  -3  -1  138.24    4.36
  -6   3  -1  140.31    5.46
   6   3   1  139.48    3.68
  -6  -3  -2  247.98    6.35
  -6   3   2  246.08    7.42
  -6  -3  -2  249.74    6.86
   6  -3   2  242.61    5.79
   6  -3   2  244.79    6.19
   6   3  -2  240.37    5.50
  -6  -3  -2  247.04    5.66
   6   3  -2  236.38    5.80
   6   3  -2  234.83    6.64
   6  -3  -2  242.31    7.37
   6   3   2  250.69    5.91
  -6   3  -2  244.54    6.38
   6  -3  -2  242.70    6.21
  -6   3  -2  255.47    7.67
   6   3   2  242.86    7.17
   6   3   2  248.52    5.45
  -6  -3  -3  121.59    5.62
  -6  -3  -3  122.90    4.36
   6  -3   3  122.27    4.97
   6   3  -3  120.90    4.58
  -6  -3  -3  120.24    5.08
   6   3  -3  122.10    5.39
   6   3  -3  128.41    6.35
   6  -3   3  120.94    4.44
   6  -3   3  123.44    5.56
  -6   3   3  126.82    6.31
   6   3   3  126.82    4.03
   6   3   3  113.94    5.98
  -6   3  -3  125.78    5.17
   6  -3  -3  130.20    4.73
   6   3   3  129.52    4.69
   6  -3  -3  123.88    6.14
  -6  -3   3  127.66    4.69
  -6   3  -3  121.04    4.60
  -6   3  -3  123.64    6.38
   6  -3  -3  126.69    3.81
  -6   3   4   62.20    4.82
  -6  -3  -4   56.96    3.96
  -6  -3  -4   56.96    5.44
   6   3  -4   61.97    5.14
  -6  -3  -4   61.00    4.77
  -6  -3  -4   60.94    5.22
  -6   3   4   59.94    6.05
   6  -3   4   65.31    4.17
   6  -3   4   62.20    4.73
   6   3  -4   60.21    6.29
   6  -3   4   65.18    5.60
  -6  -3   4   59.26    5.04
   6  -3  -4   61.02    3.82
   6   3   4   59.12    5.83
   6  -3  -4   60.06    5.87
  -6   3  -4   56.56    6.13
  -6   3  -4   61.94    5.02
   6  -3  -4   58.56    3.21
   6   3   4   58.56    3.68
   6   3   4   67.78    4.60
  -6  -3   4   57.97    4.34
  -6   3  -4   59.36    4.44
   6  -3  -4   60.84    4.17
   6  -3   5   30.24    5.39
   6  -3   5   28.14    3.91
  -6   3   5   27.88    4.87
  -6  -3  -5   32.29    5.19
   6  -3   5   24.39    4.25
   6   3  -5   31.48    6.19
  -6  -3  -5   28.39    4.49
  -6  -3  -5   25.52    3.76
  -6   3   5   24.88    5.66
  -6  -3  -5   33.02    5.38
   6   3  -5   27.33    4.94
  -6   3  -5   29.29    4.86
   6   3   5   31.30    5.55
   6  -3  -5   29.92    3.59
  -6   3  -5   30.99    6.08
  -6  -3   5   36.57    4.38
   6  -3  -5   34.46    4.27
   6  -3  -5   31.72    5.91
  -6  -3   5   25.17    3.54
  -6  -3   5   33.28    5.02
   6   3   5   35.70    4.42
   6   3   5   26.95    3.46
   6   3  -6   19.94    5.21
  -6   3   6   24.61    5.69
  -6  -3  -6   19.71    5.61
   6  -3   6   17.17    4.75
   6  -3   6   16.28    5.87
  -6  -3  -6   19.33    4.61
  -6   3   6   19.08    6.17
  -6  -3  -6   22.12    3.82
  -6  -3  -6   19.46    5.56
   6  -3   6   20.17    4.09
   6   3  -6   22.28    6.76
   6  -3  -6   15.69    5.85
   6  -3  -6   18.24    3.53
   6   3   6   18.33    3.60
   6   3   6   13.77    5.93
   6   3   6   19.75    4.60
  -6   3  -6   21.41    6.30
   6  -3  -6   17.15    3.81
  -6   3  -6   21.12    4.84
  -6  -3   6   18.76    3.56
  -6  -3   6   16.52    4.95
  -6  -3   6   24.21    4.66
  -6  -3  -7    9.15    5.43
  -6   3   7   15.30    5.97
  -6  -3  -7   15.27    5.23
  -6  -3  -7   15.58    4.44
   6  -3   7    4.34    3.90
   6  -3   7    8.61    4.76
  -6  -3  -7   14.04    3.58
  -6   3   7   12.66    5.86
   6  -3   7    6.15    6.17
   6   3  -7   11.22    6.49
   6  -3  -7   13.96    3.45
  -6  -3   7   11.96    3.61
  -6  -3   7    4.11    4.93
   6  -3  -7   12.59    3.02
   6   3   7    7.67    5.88
   6   3   7   13.53    4.69
  -6  -3   7   -2.75    4.30
   6   3   7   10.01    3.48
   6  -3  -7    9.46    5.87
   6  -3  -7   13.38    3.74
  -6   3  -7   13.62    6.15
  -6   3  -7   12.35    4.30
  -6   3   8   -4.87    6.27
  -6  -3  -8   13.75    5.44
  -6  -3  -8    8.01    3.44
  -6  -3  -8    0.25    5.49
   6  -3   8   -0.26    4.09
  -6  -3  -8    4.10    4.10
  -6   3   8   15.32    6.35
   6  -3   8  -14.66    6.55
   6   3  -8    0.71    6.47
   6  -3   8    2.36    5.28
   6   3   8   -7.73    6.32
   6  -3  -8    4.27    3.78
  -6  -3   8   -4.59    5.01
   6   3   8    3.25    3.61
   6  -3  -8    6.97    3.53
  -6  -3   8    1.42    3.59
  -6   3  -8    4.14    6.01
   6  -3  -8   -0.80    6.07
  -6  -3   8    1.83    5.95
   6   3   8    4.86    4.77
   6  -3  -8    5.43    4.26
  -7  -3   0   65.07    3.62
  -7   3   0   64.40    3.43
  -7   3   0   63.32    4.25
   7  -3   0   68.56    3.07
   7  -3   0   68.35    2.79
  -7  -3   0   65.48    3.32
   7   3   0   65.69    2.83
   7   3   0   64.61    3.17
   7   3   0   61.55    3.92
   7   3  -1   97.88    3.38
  -7   3   1   97.21    3.97
   7  -3   1   95.10    3.46
   7   3  -1   98.52    4.56
  -7   3   1   93.59    4.61
  -7  -3  -1   95.74    4.07
  -7  -3  -1   93.82    4.49
   7  -3   1   95.34    3.87
   7   3  -1   93.24    3.60
   7   3   1   93.40    5.05
   7  -3  -1   98.01    3.98
  -7   3  -1   90.39    4.07
   7  -3  -1   97.86    3.05
   7  -3  -1   93.95    3.22
   7   3   1   94.86    3.32
  -7   3  -1   95.12    5.01
   7   3   1   90.23    3.66
   7   3  -2   78.24    3.35
  -7  -3  -2   80.16    4.80
   7  -3   2   78.70    4.14
  -7   3   2   81.13    3.99
  -7  -3  -2   81.29    3.64
   7   3  -2   72.89    3.62
  -7  -3  -2   82.94    4.39
   7  -3   2   78.77    3.64
   7   3  -2   77.24    4.35
  -7   3   2   75.62    4.75
   7   3   2   78.39    3.87
  -7   3  -2   78.82    5.11
   7  -3  -2   82.16    3.95
   7   3   2   75.10    3.29
  -7   3  -2   77.88    4.25
   7  -3  -2   82.85    2.93
   7   3   2   74.12    4.98
   7  -3   3   55.24    4.63
   7  -3   3   51.72    3.55
  -7   3   3   50.35    5.01
  -7  -3  -3   56.43    3.52
   7   3  -3   42.89    3.56
   7   3  -3   52.62    4.98
  -7  -3  -3   47.86    4.26
   7  -3   3   50.19    4.11
  -7  -3  -3   45.65    4.80
   7   3  -3   51.28    4.25
   7  -3  -3   54.33    3.81
  -7   3  -3   52.10    3.92
  -7   3  -3   55.77    5.25
   7   3   3   50.07    3.88
  -7   3  -3   52.89    4.49
   7   3   3   56.72    3.26
   7   3   3   50.49    4.97
   7  -3  -3   50.04    4.95
   7  -3   4   20.91    3.68
   7   3  -4   23.98    4.96
  -7   3   4   22.54    3.89
   7   3  -4   18.87    3.47
   7  -3   4   24.12    4.59
   7  -3   4   17.59    3.23
  -7   3   4   19.53    4.90
  -7  -3  -4   19.59    3.15
  -7  -3  -4   18.46    3.89
   7   3  -4   19.23    3.90
  -7  -3  -4   20.43    4.32
   7  -3  -4   23.22    4.86
  -7  -3   4   24.28    3.63
  -7   3  -4   20.06    3.55
   7   3   4   20.22    3.65
  -7   3  -4   19.75    4.99
   7  -3  -4   24.63    3.35
   7   3   4   20.76    3.01
  -7  -3   4   19.43    3.87
  -7   3  -4   24.32    4.20
   7  -3  -4   25.31    2.84
   7   3   4   22.05    4.76
   7  -3   5   12.92    5.16
  -7  -3  -5   13.68    4.97
   7  -3   5   12.29    4.05
  -7  -3  -5   15.05    4.27
   7  -3   5   12.95    3.61
  -7   3   5   17.03    4.63
   7   3  -5   14.96    4.56
  -7  -3  -5   15.10    4.65
   7   3  -5   12.49    5.57
  -7   3   5   20.70    5.66
  -7  -3  -5   14.08    3.56
   7  -3  -5   18.56    3.05
   7  -3  -5   14.53    3.54
  -7  -3   5   15.30    4.49
  -7  -3   5   16.82    3.99
   7   3   5   14.08    5.20
  -7  -3   5   13.51    3.23
   7   3   5   14.28    3.32
  -7   3  -5   15.23    5.52
   7   3   5   14.60    3.98
  -7   3  -5   16.38    4.74
   7  -3  -5   16.73    5.36
  -7   3  -5   17.50    4.15
  -7  -3  -6    4.88    4.25
   7  -3   6    3.94    5.56
   7   3  -6    8.50    5.84
   7   3  -6    5.88    4.64
   7  -3   6    9.43    4.23
   7  -3   6    8.92    3.72
  -7  -3  -6    7.09    4.89
  -7   3   6   12.55    5.59
  -7   3   6   11.88    5.01
  -7  -3  -6    7.73    3.46
  -7  -3  -6   11.75    5.22
   7   3   6   11.68    3.35
   7   3   6    3.56    5.15
  -7   3  -6    9.61    5.47
  -7  -3   6   10.55    3.37
   7  -3  -6   10.12    5.48
   7   3   6    5.59    4.20
  -7   3  -6   10.88    4.01
  -7  -3   6    7.18    4.07
  -7  -3   6    6.53    4.48
   7  -3  -6   11.33    3.52
  -7   3  -6   10.11    4.83
   7   3  -7   12.75    6.58
   7  -3   7    6.58    4.62
  -7  -3  -7    7.13    5.33
  -7   3   7    9.68    5.90
   7  -3   7    9.13    4.11
  -7  -3  -7   11.21    4.53
   7  -3   7   -1.26    6.16
  -7   3   7    9.40    5.97
  -7  -3  -7   18.06    5.76
  -7  -3  -7   12.63    3.62
   7  -3  -7   13.15    3.52
  -7   3  -7   10.80    6.12
   7   3   7    6.60    6.04
   7  -3  -7   12.84    3.71
   7  -3  -7    8.43    3.00
  -7  -3   7   10.48    5.38
   7   3   7    8.82    3.47
  -7   3  -7   13.71    4.83
   7  -3  -7    3.55    5.79
  -7  -3   7    6.46    3.51
   7   3   7    6.05    4.44
  -7   3  -7   13.66    3.95
  -7  -3   7    6.93    4.56
  -7  -3  -8   12.93    5.36
   7  -3   8    2.95    4.29
  -7   3   8    0.99    6.35
   7   3  -8   -2.34    6.26
  -7   3   8    1.39    5.79
  -7  -3  -8    2.52    5.47
   7  -3   8   -0.82    4.99
  -7  -3  -8    3.36    4.04
   7   3   8    5.81    3.55
   7   3   8    0.81    4.69
  -7  -3   8   -2.96    4.87
  -7  -3   8    4.45    6.09
  -7   3  -8    6.51    6.00
  -7   3  -8    2.78    6.37
  -7  -3   8   -0.51    3.69
   7  -3  -8    6.56    3.89
   7  -3  -8    6.44    3.36
   7  -3  -8    0.68    5.92
   7   3   8   -3.55    6.60
   8  -3   0  130.07    3.88
   8   3   0  121.35    4.30
  -8  -3   0  125.55    4.88
   8   3   0  121.05    5.29
   8   3   0  122.09    3.93
  -8   3   0  121.79    4.66
   8  -3   0  125.18    4.15
   8   3  -1  114.58    3.86
  -8   3   1  111.89    5.30
   8  -3   1  114.02    4.45
  -8  -3  -1  119.25    5.21
   8   3  -1  117.75    4.28
  -8  -3  -1  117.53    4.71
   8   3  -1  115.97    5.17
   8  -3   1  118.69    3.97
  -8   3   1  115.42    4.59
   8   3   1  122.01    3.97
   8  -3  -1  120.30    3.88
   8  -3  -1  119.86    4.60
   8  -3  -1  118.08    3.65
   8   3   1  119.88    4.35
  -8   3  -1  115.51    4.78
   8   3   1  116.65    5.81
   8   3  -2  106.64    3.95
  -8  -3  -2  106.01    5.04
   8   3  -2  104.61    5.16
   8   3  -2  108.42    4.29
  -8  -3  -2  100.40    4.12
   8  -3   2  113.97    4.34
   8  -3   2  108.40    4.78
  -8   3   2  108.71    5.52
  -8   3   2  110.46    4.67
  -8  -3  -2  110.26    5.54
  -8   3  -2  111.37    5.05
   8  -3  -2  112.86    3.61
   8   3   2  113.02    3.98
   8   3   2  111.66    4.56
  -8   3  -2  112.06    5.79
   8  -3  -2  111.83    4.75
   8   3   2  110.00    5.86
  -8   3   3   66.29    5.46
  -8   3   3   64.01    4.47
   8   3  -3   63.71    5.41
   8  -3   3   57.39    4.67
   8   3  -3   54.16    4.71
  -8  -3  -3   58.74    3.82
   8  -3   3   62.32    5.06
  -8  -3  -3   60.52    5.36
  -8  -3  -3   54.43    4.83
   8  -3   3   56.10    3.90
   8   3  -3   57.25    4.16
   8  -3  -3   65.76    4.31
  -8   3  -3   57.83    4.49
   8  -3  -3   63.77    5.39
   8   3   3   63.39    3.66
   8   3   3   60.22    4.35
   8   3   3   60.43    5.55
  -8   3  -3   67.12    5.01
  -8   3  -3   61.12    5.57
  -8  -3  -4   55.49    4.43
  -8  -3  -4   56.93    5.57
  -8  -3  -4   50.61    6.13
   8   3  -4   56.50    5.67
   8  -3   4   46.64    5.02
   8   3  -4   56.11    4.90
   8   3  -4   58.02    6.42
  -8   3   4   53.60    5.17
  -8   3   4   52.88    6.31
   8  -3   4   50.88    6.08
   8  -3   4   41.20    4.38
  -8  -3   4   49.05    5.36
  -8  -3   4   53.98    4.60
   8   3   4   59.84    6.36
   8  -3  -4   54.47    4.56
  -8   3  -4   56.35    5.97
   8   3   4   56.17    4.91
   8   3   4   48.28    3.96
  -8   3  -4   54.79    6.38
   8  -3  -4   52.70    5.25
  -8   3  -4   54.78    5.12
   8  -3  -4   57.83    6.27
   8  -3   5   38.80    6.15
  -8   3   5   38.21    6.77
  -8   3   5   37.79    5.71
   8   3  -5   34.38    5.51
  -8  -3  -5   41.65    6.19
   8  -3   5   35.84    4.50
  -8  -3  -5   29.51    5.01
   8  -3   5   28.49    4.57
  -8  -3  -5   28.84    4.16
   8   3  -5   30.20    6.66
  -8  -3   5   31.91    5.47
   8   3   5   26.51    6.08
   8   3   5   32.99    3.93
   8  -3  -5   33.63    6.45
   8  -3  -5   32.74    4.20
  -8  -3   5   36.65    4.95
  -8  -3   5   32.04    3.88
  -8   3  -5   35.86    6.58
  -8   3  -5   33.96    4.83
  -8   3  -5   36.89    5.56
   8   3   5   37.62    4.93
  -8   3   6   22.54    5.33
  -8  -3  -6   18.78    4.70
  -8  -3  -6   10.38    3.53
   8  -3   6   10.29    4.36
   8  -3   6   10.31    3.78
   8   3  -6   13.91    5.10
  -8  -3  -6   22.52    5.78
   8   3  -6   22.80    6.43
   8  -3   6   14.25    5.97
  -8   3   6   17.22    5.83
  -8  -3  -6   18.13    5.07
   8   3   6   19.59    4.53
  -8   3  -6   17.03    4.28
  -8  -3   6   19.11    3.63
   8  -3  -6   14.20    3.62
  -8   3  -6   22.01    6.00
   8   3   6   13.61    3.44
   8  -3  -6   16.39    5.90
  -8  -3   6   23.13    4.47
   8   3   6   12.45    5.75
  -8  -3   6   14.66    5.05
  -8   3  -6   18.40    5.27
  -8   3   7    4.02    5.61
  -8  -3  -7   10.50    4.69
   8  -3   7   -6.49    6.08
   8   3  -7    9.73    6.52
  -8  -3  -7   12.96    5.83
  -8  -3  -7   12.06    3.83
  -8  -3  -7    5.37    5.11
   8  -3   7   -1.10    4.65
  -8   3   7    6.43    5.88
   8  -3   7   -0.23    3.86
  -8   3  -7    1.16    4.78
   8   3   7    2.46    6.09
  -8   3  -7   10.60    4.10
   8   3   7    3.50    3.55
   8   3   7    4.12    4.34
   8  -3  -7    3.77    5.79
   8  -3  -7    6.98    3.70
  -8   3  -7    6.24    5.72
  -8  -3   7   10.19    5.45
  -8  -3   7   -0.29    4.24
  -8  -3   7    0.60    3.39
   8  -3   8  -12.97    6.78
  -8  -3  -8    5.98    4.29
   8  -3   8    4.06    5.20
   8   3  -8    4.31    6.71
  -8  -3  -8    8.38    3.63
  -8   3   8   10.19    6.06
  -8  -3  -8    4.75    5.33
  -8  -3  -8    1.02    5.31
  -8   3   8   -0.61    6.26
   8  -3   8    6.15    4.37
   8  -3  -8    3.58    6.41
  -8  -3   8   -0.90    4.79
   8   3   8   -4.14    4.63
   8   3   8    0.16    3.58
  -8   3  -8   10.22    6.26
  -8  -3   8    1.34    6.06
  -8  -3   8    1.60    3.64
   8   3   8   -3.22    6.53
   8  -3  -8    2.66    4.89
  -9  -3   0   40.62    4.12
  -9   3   0   44.15    3.72
   9   3   0   41.57    3.34
   9  -3   0   41.36    2.90
   9   3   0   40.68    2.86
   9   3   0   42.00    4.44
   9  -3   0   46.16    3.41
   9  -3   1   97.24    3.85
  -9  -3  -1   92.77    5.13
  -9   3   1   85.78    4.50
  -9  -3  -1   95.63    4.64
   9   3  -1   87.32    4.12
   9   3  -1   88.27    5.08
   9   3  -1   85.02    3.59
   9  -3   1   92.36    4.34
   9   3   1   93.64    3.79
   9  -3  -1   94.62    3.59
   9   3   1   90.52    5.80
   9  -3  -1   95.25    4.51
   9   3   1   93.90    4.26
  -9   3  -1   86.36    4.68
   9  -3  -1   93.48    3.87
   9   3  -2   46.85    3.74
  -9  -3  -2   46.10    4.88
  -9   3   2   54.11    4.11
   9   3  -2   49.58    3.27
   9   3  -2   53.74    4.62
  -9  -3  -2   50.91    3.60
   9  -3   2   52.67    4.23
   9  -3   2   51.02    3.64
  -9  -3  -2   52.31    4.53
  -9   3   2   52.48    4.93
   9  -3  -2   53.37    4.10
   9  -3  -2   53.09    3.06
  -9   3  -2   48.70    4.55
   9   3   2   51.37    5.35
   9   3   2   52.74    4.05
   9   3   2   50.41    3.37
  -9   3   3   22.55    4.50
   9  -3   3   22.28    3.19
   9   3  -3   19.02    3.97
   9   3  -3   18.60    3.37
  -9   3   3   24.08    3.54
  -9  -3  -3   18.64    3.92
   9  -3   3   21.08    4.20
  -9  -3  -3   26.06    3.51
  -9  -3  -3   19.73    4.35
   9  -3   3   22.59    3.77
   9  -3  -3   28.72    5.18
   9   3   3   18.44    4.61
   9  -3  -3   20.34    2.69
  -9   3  -3   26.77    4.72
  -9   3  -3   24.66    4.12
  -9   3  -3   22.34    3.79
   9   3   3   21.85    3.56
   9  -3  -3   23.29    3.43
   9   3   3   17.95    2.97
  -9   3   4   49.38    6.39
  -9  -3  -4   36.43    5.52
  -9   3   4   59.06    5.14
   9   3  -4   49.97    5.80
   9  -3   4   47.01    6.33
   9  -3   4   47.27    5.51
  -9  -3  -4   42.59    4.36
   9  -3   4   47.88    4.53
   9   3  -4   46.84    5.23
  -9  -3  -4   46.37    5.66
   9   3  -4   49.34    6.44
   9  -3  -4   53.53    6.38
  -9   3  -4   46.20    6.19
  -9   3  -4   49.17    5.33
   9   3   4   50.57    4.23
  -9   3  -4   47.49    6.33
   9   3   4   50.03    6.79
   9   3   4   47.17    5.09
   9  -3  -4   48.67    4.77
  -9  -3   4   47.59    4.85
   9  -3  -4   53.25    5.39
  -9   3   5   11.79    5.42
   9  -3   5   14.94    3.87
  -9  -3  -5   14.51    3.82
  -9  -3  -5   10.63    4.70
   9   3  -5   10.85    4.92
   9   3  -5   10.41    5.81
   9  -3   5   12.87    4.36
   9  -3   5   10.22    5.47
  -9   3   5   16.33    4.63
  -9  -3  -5   13.86    5.71
  -9   3  -5   11.19    5.16
   9   3   5   12.90    5.67
  -9  -3   5   12.88    4.90
   9  -3  -5   14.25    5.54
  -9   3  -5    8.89    5.36
  -9   3  -5   13.52    4.61
   9  -3  -5   14.30    3.88
   9   3   5   10.98    3.26
  -9  -3   5   14.33    4.21
   9   3   5   10.31    4.14
  -9  -3  -6    5.38    3.50
   9   3  -6    2.45    4.64
   9  -3   6    0.60    3.34
  -9   3   6    0.73    5.14
   9  -3   6   -3.20    5.43
  -9  -3  -6    2.62    5.23
   9   3  -6    1.32    5.35
  -9  -3  -6    5.23    4.40
   9  -3   6   -1.22    3.81
  -9   3   6    0.80    4.56
  -9   3  -6    3.18    4.91
  -9   3  -6    6.66    4.96
  -9  -3   6    3.20    4.05
   9   3   6   -0.91    3.04
  -9  -3   6   -2.78    2.71
   9   3   6    1.09    5.48
   9  -3  -6    3.32    3.37
   9  -3  -6    1.29    5.20
  -9   3  -6    4.61    3.92
   9   3   6    3.86    4.02
  -9  -3   6    3.29    4.51
  -9  -3  -7    3.64    4.75
  -9   3   7    7.17    6.14
   9   3  -7    2.18    6.04
  -9  -3  -7    2.38    3.60
   9   3  -7   -1.07    5.47
  -9  -3  -7    4.51    4.89
   9  -3   7    7.42    3.97
  -9  -3  -7   11.40    5.99
   9  -3   7  -11.18    5.80
  -9   3   7    5.24    5.56
   9  -3   7    5.34    4.70
   9  -3  -7    0.50    5.77
   9   3   7    3.50    3.45
  -9  -3   7    2.16    3.29
   9   3   7   -4.99    6.13
  -9  -3   7    1.72    5.11
   9   3   7   -1.02    4.42
  -9   3  -7    8.13    5.19
  -9   3  -7    2.38    5.54
  -9  -3   7    2.14    4.34
   9  -3  -7    0.78    3.50
  -9   3  -7    2.46    4.07
   9  -3   8  -14.57    6.62
   9   3  -8    8.14    7.10
  -9   3   8   -4.04    6.09
  -9   3   8    1.33    6.14
   9  -3   8    3.01    4.16
   9  -3   8    1.05    5.14
  -9  -3  -8   10.96    5.94
  -9  -3  -8    8.67    3.61
  -9  -3  -8    2.56    4.47
  -9   3  -8    3.33    6.01
   9   3   8   -3.83    3.57
   9   3   8    3.93    4.95
  -9   3  -8   10.68    5.16
   9  -3  -8   -0.05    6.41
   9   3   8   -8.79    6.81
  -9  -3   8   -3.49    5.55
  -9  -3   8   -1.65    3.50
  -9  -3   8   -0.48    5.12
  10   3   0   34.28    4.81
  10  -3   0   40.85    3.65
 -10  -3   0   37.91    4.43
  10   3   0   37.36    3.60
  10  -3   0   40.88    3.22
 -10   3   0   37.26    4.06
  10   3   0   35.97    3.18
 -10   3   1   76.75    4.66
  10  -3   1   82.41    4.56
  10   3  -1   73.25    3.71
 -10  -3  -1   79.67    5.52
 -10  -3  -1   79.37    4.89
  10   3  -1   76.80    5.36
  10   3  -1   76.00    4.31
  10  -3   1   74.24    3.95
  10   3   1   78.07    4.50
  10  -3  -1   80.29    3.70
 -10   3  -1   81.49    4.97
  10   3   1   82.93    6.16
 -10  -3   1   82.06    4.76
  10   3   1   76.50    3.87
  10  -3  -1   81.13    4.09
 -10   3   2   43.04    4.40
  10  -3   2   43.02    4.58
 -10  -3  -2   45.67    5.44
  10   3  -2   36.50    4.04
  10  -3   2   36.03    3.69
  10   3  -2   43.36    5.01
 -10  -3  -2   41.73    4.76
 -10   3   2   39.81    4.92
  10   3  -2   37.58    3.47
  10   3   2   41.97    4.26
 -10  -3   2   40.89    4.09
  10   3   2   47.90    5.98
  10  -3  -2   39.66    3.15
  10  -3  -2   38.34    4.28
 -10   3  -2   43.34    4.89
  10   3   2   38.85    3.53
  10  -3   3   40.91    4.35
 -10  -3  -3   38.18    5.29
  10   3  -3   41.25    4.57
  10  -3   3   49.95    5.24
 -10   3   3   40.10    5.53
  10   3  -3   44.65    5.56
 -10   3   3   49.56    4.81
 -10  -3  -3   37.40    4.12
 -10  -3  -3   37.67    4.81
  10  -3   3   48.30    5.72
  10  -3  -3   42.02    3.44
 -10   3  -3   42.89    5.61
  10  -3  -3   45.62    4.77
  10   3   3   32.69    5.36
  10   3   3   42.65    4.76
  10   3   3   45.78    4.00
 -10   3  -3   40.26    4.66
  10  -3   4   18.92    4.46
 -10  -3  -4   25.37    5.81
 -10   3   4   16.14    5.35
  10   3  -4   23.69    4.53
  10   3  -4   22.47    4.97
 -10  -3  -4   20.53    4.97
  10  -3   4   19.90    5.20
  10  -3   4   19.56    3.69
 -10  -3  -4   24.72    4.03
 -10   3   4   21.03    4.23
 -10   3   4   21.09    4.31
  10   3  -4   23.80    5.52
  10   3   4   16.35    3.49
 -10   3  -4   19.61    4.57
 -10   3  -4   23.36    5.36
  10  -3  -4   23.66    4.69
  10  -3  -4   23.96    4.14
  10   3   4   19.23    5.69
  10  -3  -4   27.31    5.72
 -10   3  -4   22.84    5.35
  10   3   4   20.66    4.18
 -10   3   5   26.24    4.56
  10  -3   5   19.37    3.95
 -10  -3  -5   24.92    5.27
 -10  -3  -5   27.90    6.27
  10  -3   5   23.65    5.70
  10   3  -5   28.70    6.29
  10   3  -5   26.31    5.49
 -10   3   5   23.61    5.92
 -10   3   5   24.25    4.87
  10  -3   5   24.79    4.94
 -10  -3  -5   20.45    4.09
 -10   3  -5   20.07    5.46
  10  -3  -5   26.42    4.20
 -10  -3   5   23.80    5.33
 -10   3  -5   23.85    5.68
  10   3   5   20.08    4.17
  10   3   5   18.87    3.55
 -10   3  -5   22.66    4.89
  10  -3  -5   19.32    5.74
 -10  -3   5   24.41    4.44
  10   3   5   21.82    5.91
  10   3  -6    7.72    6.05
 -10   3   6   15.25    5.96
 -10   3   6   11.13    4.34
  10   3  -6   13.10    5.51
 -10  -3  -6   13.53    6.05
  10  -3   6    8.28    3.79
 -10   3   6    8.70    2.94
 -10  -3  -6   14.58    4.97
 -10  -3  -6   13.00    3.84
 -10   3   6    8.93    4.96
  10  -3   6   12.60    4.73
  10  -3   6    6.28    5.91
  10   3   6   11.58    3.46
 -10   3  -6   15.54    5.43
  10   3   6   12.11    4.33
  10   3   6    6.44    5.97
 -10   3  -6   13.26    5.56
  10  -3  -6   10.48    5.91
 -10  -3   6   11.13    5.51
 -10  -3   6    5.04    3.01
 -10  -3   6   12.26    4.47
 -10   3  -6   11.25    4.90
  10  -3  -6   14.35    4.05
  10  -3   7   -1.01    6.29
  10  -3   7   -1.76    4.70
 -10   3   7    1.41    5.93
 -10  -3  -7    1.08    3.72
  10   3  -7    8.92    6.50
 -10  -3  -7    6.16    4.89
  10   3  -7    5.04    5.86
  10  -3   7    5.66    4.04
 -10   3   7    1.22    5.35
 -10  -3  -7   13.32    6.36
 -10   3  -7    8.00    5.61
  10  -3  -7    4.19    3.90
 -10   3  -7    8.63    5.58
 -10   3  -7    4.17    4.33
  10   3   7    5.94    3.49
 -10  -3   7   -0.06    3.28
 -10  -3   7   -0.87    5.36
  10   3   7    5.49    4.55
  10  -3  -7    0.85    5.77
 -10  -3   7    3.99    4.36
  10   3   7    1.43    6.63
  11   3   0    5.95    2.62
  11   3   0    3.19    3.73
 -11   3   0    7.68    3.10
  11   3   0    5.53    2.91
 -11  -3   0    6.60    3.66
  11  -3   0    5.93    2.62
  11  -3   0    6.34    2.99
  11  -3   1   19.73    3.52
  11   3  -1   18.99    4.27
 -11  -3  -1   16.98    4.25
 -11   3   1   18.51    3.53
  11   3  -1   18.08    2.95
 -11  -3  -1   17.66    3.88
  11   3  -1   21.18    3.47
  11  -3   1   19.88    3.18
 -11   3  -1   19.80    3.71
  11   3   1   24.62    5.06
 -11  -3   1   24.28    3.90
  11   3   1   17.75    3.00
  11  -3  -1   19.57    3.20
  11  -3  -1   25.14    3.04
  11   3   1   17.58    3.58
  11   3  -2   22.75    3.78
 -11  -3  -2   20.15    4.33
 -11   3   2   20.45    3.78
  11  -3   2   22.31    3.50
 -11   3   2   20.79    4.49
  11  -3   2   19.99    3.97
  11   3  -2   22.17    4.53
  11   3  -2   24.09    3.29
 -11  -3  -2   18.35    4.65
  11  -3  -2   22.79    3.80
  11   3   2   18.54    3.40
  11  -3  -2   25.41    3.43
  11   3   2   18.53    3.23
  11  -3  -2   23.35    2.98
  11   3   2   23.03    5.35
 -11  -3   2   26.40    3.87
 -11   3  -2   27.07    4.33
 -11   3   3   23.10    4.12
  11   3  -3   20.65    3.57
  11   3  -3   15.15    4.64
  11  -3   3   19.12    4.20
 -11  -3  -3   17.46    3.87
 -11  -3  -3   19.56    5.31
  11   3  -3   18.35    3.99
  11  -3   3   16.98    3.43
 -11   3   3   25.02    5.00
 -11  -3  -3   18.21    4.72
  11   3   3   15.58    3.30
  11  -3  -3   22.85    4.04
  11  -3  -3   21.10    3.16
  11   3   3   21.95    5.38
  11  -3  -3   26.73    3.88
 -11   3  -3   17.75    4.62
  11   3   3   19.41    3.87
 -11   3  -3   22.05    4.55
 -11   3   4   12.74    5.26
 -11   3   4   13.08    4.32
  11  -3   4   11.57    5.10
 -11  -3  -4   13.22    3.88
  11   3  -4   16.37    5.01
  11  -3   4   10.26    3.72
 -11   3   4   15.20    4.21
  11   3  -4   10.49    4.36
 -11  -3  -4   18.92    5.56
 -11  -3  -4   20.25    5.99
  11   3  -4   15.34    5.23
  11  -3   4   18.41    4.81
  11   3   4   15.18    3.55
  11   3   4   14.93    5.66
  11   3   4   13.75    3.95
  11  -3  -4   17.30    4.59
 -11   3  -4   12.92    5.27
  11  -3  -4   15.56    5.53
 -11   3  -4   16.80    4.89
  11  -3  -4   16.32    4.19
  11   3  -5   16.84    4.64
 -11   3   5   14.26    5.23
  11  -3   5    8.35    5.27
 -11  -3  -5    7.91    3.57
  11   3  -5    6.44    5.33
  11  -3   5   14.27    3.67
  11  -3   5   10.07    4.38
 -11  -3  -5   12.37    5.02
 -11   3   5   16.17    4.55
 -11  -3  -5   15.07    5.87
 -11   3   5   12.14    4.05
  11   3  -5   16.87    5.19
 -11   3  -5   14.83    5.45
  11  -3  -5    9.43    5.35
 -11   3  -5   11.18    4.96
  11   3   5   10.66    3.98
  11  -3  -5   11.57    4.71
 -11   3  -5   13.48    5.06
 -11  -3   5   16.60    4.11
 -11  -3   5   17.93    5.02
  11   3   5    7.63    5.44
 -11   3  -5    5.01    3.38
  11  -3  -5    6.15    3.65
  11   3   5    8.59    3.34
 -11   3   6   12.44    2.97
  11  -3   6   -2.30    5.79
  11   3  -6   10.65    5.47
 -11  -3  -6   10.49    6.42
  11  -3   6    9.17    3.85
 -11   3   6    5.81    5.61
  11   3  -6    8.07    5.96
 -11   3   6   10.21    4.98
 -11  -3  -6    2.40    3.59
  11  -3   6    6.26    4.73
 -11  -3  -6   16.16    5.34
 -11   3   6    7.88    4.20
  11   3   6   16.88    4.49
  11  -3  -6    7.16    3.90
 -11   3  -6    6.91    3.62
 -11  -3   6    8.90    3.18
 -11  -3   6    5.12    4.27
  11   3   6    4.35    6.19
  11   3   6   13.18    3.68
 -11   3  -6    1.06    5.00
 -11   3  -6   11.46    5.26
  11  -3  -6   10.10    5.98
 -11   3  -6    1.25    5.37
 -11  -3   6    5.64    5.21
  11   3  -7    4.35    5.89
  11  -3   7   10.08    4.13
 -11   3   7    3.63    5.95
  11  -3   7   -0.73    6.20
  11  -3   7    8.11    5.33
 -11   3   7    5.15    5.45
 -11  -3  -7   14.59    6.53
 -11  -3  -7   18.43    4.21
 -11   3   7    8.69    4.61
 -11  -3  -7   12.49    5.32
  11   3  -7    9.46    6.50
 -11  -3   7    3.59    5.62
 -11  -3   7    5.76    4.53
  11  -3  -7    4.52    4.15
  11  -3  -7    1.42    6.02
  11   3   7   10.43    3.65
 -11   3  -7    8.44    5.84
 -11   3  -7    7.77    5.71
 -11   3  -7    9.99    4.56
  11   3   7    9.88    4.77
  11   3   7    5.26    6.68
 -11  -3   7    9.85    3.69
  12   3   0   20.82    3.65
  12  -3   0   23.51    3.81
  12   3   0   20.12    3.28
 -12   3   0   19.86    3.92
 -12  -3   0   23.05    4.51
  12   3   0   23.08    4.76
  12  -3   0   19.54    3.33
 -12  -3  -1   15.81    4.63
  12   3  -1   18.39    3.29
  12  -3   1   21.69    3.91
 -12   3   1   14.79    3.74
  12   3  -1   19.94    4.76
 -12  -3  -1   20.00    4.29
  12   3  -1   18.18    3.73
  12  -3   1   20.85    3.39
 -12  -3   1   19.89    4.22
  12  -3  -1   20.28    3.26
  12  -3  -1   21.15    3.47
  12   3   1   19.51    4.96
  12   3   1   16.22    3.23
  12   3   1   15.57    3.60
 -12   3  -1   17.43    3.94
  12   3  -2   32.86    4.32
 -12  -3  -2   35.62    5.06
  12   3  -2   29.25    3.71
  12  -3   2   30.57    4.47
  12  -3   2   29.70    3.82
 -12  -3  -2   32.96    5.48
 -12   3   2   29.34    4.42
  12   3  -2   42.52    5.99
  12   3   2   30.19    4.17
  12  -3  -2   33.06    3.66
  12  -3  -2   32.82    3.90
  12   3   2   30.21    3.68
 -12   3  -2   30.10    4.79
  12   3   2   36.56    6.04
 -12  -3   2   30.66    4.35
  12   3  -3   11.14    4.23
 -12  -3  -3    7.36    3.86
 -12   3   3   12.62    4.98
  12   3  -3   12.35    3.80
 -12   3   3   10.79    4.16
  12  -3   3    5.03    3.34
  12  -3   3   10.05    4.32
 -12  -3  -3   14.25    5.62
 -12  -3  -3    9.33    5.11
  12   3  -3   12.15    5.02
 -12   3  -3   15.38    4.86
  12   3   3   13.62    3.83
  12  -3  -3   13.14    3.72
  12  -3  -3   13.92    4.19
  12   3   3   17.56    3.47
  12   3   3    4.52    5.42
 -12   3  -3   10.79    4.58
  12  -3  -3   11.90    3.22
 -12  -3  -4   11.33    5.48
  12  -3   4    7.66    4.93
  12  -3   4    7.79    3.34
 -12  -3  -4    4.98    3.52
 -12   3   4    6.64    4.88
  12  -3   4    8.86    4.29
  12   3  -4    9.54    4.62
  12   3  -4   13.06    4.33
 -12  -3  -4    9.04    5.63
 -12   3   4   13.39    4.10
  12   3   4    9.78    3.88
 -12   3  -4    6.76    4.76
  12  -3  -4    9.67    3.82
  12   3   4    4.88    5.35
 -12   3  -4    5.39    5.20
  12   3   4    8.73    3.33
 -12  -3  -5    8.66    5.25
 -12  -3  -5    8.73    3.91
  12  -3   5    0.90    5.20
  12   3  -5   10.22    5.39
  12   3  -5   15.96    5.22
  12   3  -5    9.91    4.75
 -12   3   5    5.17    5.16
  12  -3   5   10.42    4.69
 -12   3   5   12.79    4.44
 -12   3   5   10.61    4.33
 -12  -3  -5    7.72    5.91
  12  -3   5    7.02    3.79
 -12  -3   5   11.18    4.03
 -12   3  -5    8.63    3.57
  12  -3  -5    8.81    4.78
 -12   3  -5    9.86    5.24
  12   3   5    7.70    5.85
  12   3   5    9.38    3.96
 -12  -3   5    6.15    4.69
  12  -3  -5   10.01    4.02
 -12   3  -5    8.41    5.53
  12  -3  -5    8.36    5.63
  12   3   5   10.89    3.42
  12  -3   6    3.33    4.83
 -12   3   6    3.78    5.00
 -12   3   6    4.70    5.61
 -12  -3  -6    5.32    3.83
  12   3  -6    5.26    5.46
 -12  -3  -6    7.26    5.38
 -12  -3  -6   16.77    6.78
  12   3  -6   13.79    6.26
  12  -3   6   -1.99    5.83
  12  -3   6    4.65    3.92
 -12   3   6    4.93    4.50
 -12   3  -6    2.58    3.62
 -12  -3   6   10.47    5.72
  12   3   6    1.79    6.36
  12   3   6    6.02    3.62
 -12  -3   6    1.64    4.32
  12   3   6    3.34    4.38
  12  -3  -6    2.23    5.71
  12  -3  -6   -0.89    3.80
 -12   3  -6    5.67    5.64
 -12   3  -6   13.48    5.91
  12  -3   7   -6.08    6.40
 -12  -3  -7   11.74    5.56
  12   3  -7   11.24    6.20
 -12  -3  -7    4.22    3.95
  12   3  -7    2.12    6.20
  12  -3   7    6.42    4.10
 -12   3   7   -1.58    5.96
 -12   3   7   -2.89    5.23
 -12  -3  -7   11.19    6.60
  12  -3   7    3.04    5.04
 -12   3   7    2.58    4.71
  12   3   7    6.83    3.78
 -12  -3   7    0.80    3.37
 -12  -3   7    8.46    4.81
  12   3   7   -0.36    6.81
  12   3   7    5.25    4.70
 -12   3  -7    2.17    4.47
  12  -3  -7    7.19    6.44
 -12  -3   7    1.45    5.36
  12  -3  -7    2.06    4.08
 -12   3  -7    8.35    5.85
 -13  -3   0    3.55    4.45
  13  -3   0   -0.05    3.45
  13   3   0    6.23    3.54
  13  -3   0   -0.73    3.12
  13   3   0   -0.51    2.91
  13   3   0    1.90    4.51
 -13   3   0    1.22    3.74
  13   3  -1   10.70    3.85
 -13  -3  -1    6.70    4.92
  13  -3   1    2.63    3.76
  13   3  -1   11.13    4.75
  13  -3   1   -2.49    3.09
  13   3  -1   -2.04    3.04
 -13   3   1   -2.40    3.73
 -13  -3  -1    1.12    4.31
 -13   3  -1    1.90    4.13
  13   3   1    0.88    3.15
  13   3   1    4.53    5.01
  13   3   1    4.74    3.77
  13  -3  -1    2.97    3.41
 -13  -3   1    0.51    4.27
  13  -3  -1    2.53    3.10
  13   3  -2   10.80    4.92
  13   3  -2   12.55    4.19
 -13  -3  -2   11.99    4.98
  13  -3   2   15.27    4.33
 -13  -3  -2    9.13    5.40
  13  -3   2    8.04    3.64
 -13   3   2   12.01    4.53
  13   3  -2   10.33    3.49
  13  -3  -2   12.10    3.75
 -13  -3   2    9.38    4.18
 -13   3  -2    7.45    4.30
  13   3   2   11.46    3.59
  13   3   2   10.52    4.10
  13   3   2    9.46    5.67
  13  -3  -2    7.08    3.19
 -13   3   3    3.93    4.23
  13   3  -3    5.08    3.51
  13  -3   3    0.94    3.25
  13   3  -3    7.38    4.14
 -13   3   3   -0.04    4.40
 -13  -3  -3   -0.82    3.67
 -13  -3  -3    5.79    5.30
  13  -3   3    1.09    4.02
 -13  -3  -3    6.19    5.50
  13   3  -3    4.96    4.61
 -13   3  -3    0.16    4.38
 -13   3  -3    5.25    4.81
  13   3   3    1.61    5.20
  13  -3  -3    4.64    3.06
  13   3   3    4.84    3.12
  13   3   3    0.50    3.52
  13  -3   4    5.80    3.39
 -13  -3  -4    4.72    5.61
 -13  -3  -4    2.26    5.43
  13  -3   4   -2.12    4.80
 -13   3   4    4.09    4.07
  13   3  -4    6.94    4.43
  13  -3   4    6.54    4.29
  13   3  -4    6.66    4.53
 -13   3   4    2.71    4.57
 -13  -3  -4    0.72    3.55
  13   3   4    4.63    3.68
 -13   3  -4   -1.89    5.11
  13  -3  -4    4.63    3.90
 -13   3  -4    6.05    5.05
  13   3   4    5.68    5.46
  13   3   4    1.44    3.06
 -13  -3  -5   15.55    6.52
  13  -3   5    1.43    5.55
  13  -3   5   10.91    4.75
 -13  -3  -5    8.33    3.81
  13   3  -5   12.82    5.30
  13   3  -5    6.50    5.49
 -13   3   5    8.33    4.32
 -13   3   5    9.33    5.40
  13   3  -5   11.91    5.04
 -13  -3  -5    9.66    5.85
  13  -3   5   12.32    3.83
 -13  -3   5   11.88    4.18
 -13  -3   5   15.47    5.26
 -13   3  -5    2.68    5.70
 -13   3  -5    9.38    3.82
  13   3   5   11.10    4.17
  13   3   5   14.26    3.73
 -13   3  -5    9.51    5.88
  13  -3  -5    8.12    4.17
  13   3   5    4.16    6.00
 -13  -3   5   17.36    6.44
 -13  -3  -6   11.62    6.03
 -13   3   6    5.70    4.51
  13  -3   6    4.92    3.82
  13   3  -6    1.39    5.99
 -13  -3  -6   14.84    7.03
  13  -3   6   -1.49    6.15
  13   3  -6    8.44    5.86
  13  -3   6    9.81    5.16
 -13   3   6   -0.26    4.66
 -13  -3  -6   13.92    4.39
 -13   3   6    5.16    5.75
  13  -3  -6    4.58    4.24
  13  -3  -6    5.91    6.10
  13   3   6   10.63    3.81
  13   3   6    6.15    4.40
 -13   3  -6    1.74    6.08
 -13   3  -6    8.03    6.14
 -13  -3   6   13.08    6.32
 -13  -3   6   10.10    5.75
 -13  -3   6    3.80    4.59
 -13   3  -6    2.89    3.72
  13   3   6    2.00    6.50
  14  -3   0   -0.23    3.29
  14   3   0    2.29    3.39
 -14  -3   0    2.00    4.56
  14   3   0    8.20    4.87
 -14   3   0    0.56    4.16
 -14  -3   0    3.82    4.83
  14  -3   0   -0.15    3.73
  14   3   0   10.03    3.97
 -14  -3  -1    0.55    4.60
 -14   3   1    9.18    4.31
  14   3  -1    4.05    3.35
 -14  -3  -1    6.10    5.19
  14  -3   1    4.78    3.89
  14   3  -1    3.65    3.86
  14   3  -1    5.48    4.73
  14  -3   1    5.53    3.54
  14   3   1    3.17    3.36
  14  -3  -1    7.72    3.28
 -14  -3   1    7.24    4.67
  14   3   1    9.13    5.30
  14   3   1    1.50    4.02
 -14   3  -1    6.81    4.41
  14  -3  -1    2.80    3.54
 -14  -3  -2   -2.03    5.06
  14   3  -2    5.29    4.63
  14   3  -2    1.07    3.29
  14  -3   2    0.40    3.86
  14   3  -2    4.35    3.99
  14  -3   2    4.18    3.34
 -14   3   2    0.51    4.23
 -14  -3  -2    2.19    4.86
  14  -3  -2    3.16    2.99
  14   3   2   -1.62    3.83
  14  -3  -2    2.92    3.42
 -14   3  -2    2.87    4.41
  14   3   2    2.05    3.22
 -14  -3   2    2.48    4.12
  14   3   2    8.20    5.54
  14  -3   3    5.67    4.10
 -14  -3  -3   -2.73    3.66
  14   3  -3    6.85    4.25
 -14   3   3   -1.87    4.42
 -14  -3  -3    2.65    5.39
  14   3  -3    9.70    4.79
  14   3  -3    6.52    3.71
 -14  -3  -3    2.75    5.37
  14  -3   3    3.56    3.29
 -14   3   3    7.81    4.49
 -14  -3   3    4.24    4.01
  14   3   3    5.74    5.55
 -14   3  -3    5.31    4.76
 -14   3  -3    9.29    5.17
  14  -3  -3    6.65    3.50
  14   3   3    7.92    3.58
  14  -3  -3    7.39    3.17
  14   3   3   10.70    3.40
 -14  -3  -4    0.86    3.97
  14  -3   4   -0.60    4.71
  14  -3   4    8.41    4.43
 -14  -3  -4    3.73    5.90
 -14  -3  -4    5.54    6.08
  14  -3   4    4.96    3.52
  14   3  -4    7.86    4.89
 -14   3   4    1.39    4.93
 -14   3   4    0.72    4.34
  14   3  -4    0.14    4.40
  14  -3  -4    2.97    3.18
  14   3   4    4.75    3.23
  14  -3  -4   -0.04    4.04
  14   3   4    7.74    3.94
 -14   3  -4    3.61    5.59
 -14   3  -4    6.67    5.54
  14   3   4    8.14    5.71
 -14  -3  -5    0.20    4.09
 -14   3   5    1.93    5.11
 -14  -3  -5   12.25    6.24
  14   3  -5   14.82    5.35
  14  -3   5   -1.66    5.71
 -14   3   5    7.86    4.65
 -14  -3  -5    1.88    6.66
  14  -3   5    6.76    3.76
  14  -3   5    9.38    4.75
  14   3  -5    4.99    5.16
  14   3   5    5.43    4.17
 -14   3  -5    1.09    5.92
 -14  -3   5    6.15    4.04
  14   3   5   -0.15    5.93
 -14   3  -5   -0.83    3.56
 -14   3  -5   12.23    6.32
  14  -3  -5    1.12    4.05
  14   3   5    7.90    3.77
 -14  -3   5    6.26    4.95
  14  -3   6    9.97    5.17
 -14  -3  -6    6.27    4.21
  14   3  -6    7.79    5.77
 -14   3   6    0.43    4.41
  14  -3   6   -0.87    6.24
 -14   3   6   -5.49    5.31
  14  -3   6    9.79    4.03
 -14  -3  -6    9.65    6.35
 -14  -3  -6    4.29    6.98
 -14   3  -6   -7.48    5.68
  14   3   6    0.58    4.25
 -14  -3   6    4.20    5.68
 -14   3  -6   -3.45    3.69
 -14  -3   6    5.50    4.45
  14   3   6   -2.53    6.41
 -14   3  -6    0.65    6.55
  14   3   6   10.27    3.93
  14  -3  -6   -2.76    4.02
  15  -3   0    1.35    3.59
 -15   3   0   -4.71    4.02
 -15  -3   0    3.62    4.77
  15   3   0    1.64    3.23
  15   3   0    6.34    3.85
  15  -3   0    1.60    3.28
 -15  -3   0    1.08    4.57
  15   3   0    2.65    4.38
 -15  -3  -1   -0.66    4.95
  15   3  -1    1.07    3.34
  15  -3   1    8.45    3.74
 -15  -3  -1    4.22    4.98
  15   3  -1    2.80    3.97
  15  -3   1    5.69    3.50
 -15   3   1    0.68    4.10
  15   3  -1    6.94    4.43
  15   3   1    4.21    3.96
  15   3   1    4.15    3.16
  15   3   1    9.43    5.13
 -15   3  -1   -0.45    4.02
  15  -3  -1    7.58    3.25
  15  -3  -1    1.41    3.31
 -15  -3   1   -1.87    4.42
  15  -3   2    0.54    3.14
 -15  -3  -2    1.42    5.18
 -15  -3  -2    0.87    5.26
  15   3  -2    6.54    4.49
  15   3  -2    4.91    3.50
  15  -3   2    4.47    3.91
  15   3  -2    5.96    4.04
 -15   3   2   -0.50    4.45
  15  -3  -2    4.29    3.05
  15   3   2   -0.63    3.27
  15  -3  -2    7.08    3.52
 -15  -3   2    3.22    4.42
 -15   3  -2    3.60    4.46
  15   3   2    6.61    5.39
  15   3   2    2.10    4.15
 -15  -3  -3   -3.95    5.53
  15   3  -3    7.84    4.85
  15  -3   3   -1.84    3.34
  15   3  -3    2.83    3.74
  15   3  -3    4.24    4.46
 -15  -3  -3    0.31    3.88
  15  -3   3   -0.59    4.04
 -15   3   3    1.14    4.60
 -15  -3  -3    0.63    5.90
  15  -3  -3    2.29    3.19
 -15   3  -3   -4.45    4.63
 -15  -3   3   -0.72    4.16
  15   3   3    2.36    3.58
  15   3   3    4.54    4.21
  15   3   3    1.56    5.52
 -15   3  -3    5.19    5.59
  15  -3  -3    6.90    3.78
 -15  -3  -4    5.27    4.34
  15   3  -4    6.87    4.80
 -15   3   4   -0.77    4.56
 -15  -3  -4    8.16    6.35
  15   3  -4   12.40    5.29
  15  -3   4    5.49    4.53
  15  -3   4    6.70    3.79
 -15  -3  -4   11.92    6.68
  15   3   4    9.94    3.41
  15   3   4    4.95    5.83
 -15   3  -4    3.02    6.02
  15  -3  -4    4.13    3.39
  15  -3  -4    4.54    3.90
 -15   3  -4   -1.79    5.87
  15   3   4    1.82    3.81
  15  -3   5    5.85    4.87
  15   3  -5    2.93    5.07
 -15   3   5    4.97    4.24
  15  -3   5   -0.43    5.39
  15   3  -5    8.16    5.29
 -15   3   5    3.16    4.79
 -15  -3  -5    7.30    6.47
 -15  -3  -5   -0.40    4.19
 -15  -3  -5   11.82    7.04
  15  -3   5    2.94    3.58
  15  -3  -5    3.98    4.49
  15   3   5   -3.08    5.91
 -15   3  -5   -0.74    6.39
 -15   3  -5    2.85    3.65
  15   3   5    8.89    4.29
 -15   3  -5    3.34    6.26
  15  -3  -5    2.27    4.42
  15   3   5   10.66    3.74
 -15  -3   5    3.66    4.09
 -15  -3   5    3.94    4.95
  16   3   0    8.92    4.43
 -16  -3   0   -0.35    4.90
 -16  -3   0   -5.43    4.86
  16   3   0    4.60    3.59
  16  -3   0    6.05    3.35
 -16   3   0   -1.78    4.56
  16   3   0   10.01    4.25
  16  -3   0    4.07    3.72
  16  -3   1    8.12    3.80
  16  -3   1    8.66    4.11
 -16  -3  -1    5.39    5.39
 -16   3   1    6.50    4.87
  16   3  -1    3.22    3.57
  16   3  -1   15.93    4.77
 -16  -3  -1    4.23    5.27
  16   3  -1    5.01    4.01
  16  -3  -1   10.75    3.74
  16   3   1   11.16    3.68
 -16  -3   1    4.36    4.95
  16   3   1   10.28    5.30
 -16   3  -1    0.84    4.57
  16   3   1    4.32    4.18
  16  -3  -1    5.19    3.27
  16   3  -2    4.24    3.73
 -16  -3  -2    2.51    5.57
 -16  -3  -2   -1.33    5.59
  16  -3   2    0.64    4.05
 -16   3   2    5.00    4.89
  16  -3   2    4.42    3.34
  16   3  -2    9.39    4.83
  16   3  -2   10.43    4.52
 -16  -3   2    5.68    4.79
 -16   3  -2    4.73    4.99
  16   3   2    8.52    5.53
  16  -3  -2    8.39    3.46
  16   3   2    3.91    4.30
  16  -3  -2   11.09    3.69
  16   3   2    9.79    3.74
  16   3  -3    4.25    3.84
  16   3  -3   10.70    4.77
 -16   3   3   -2.26    4.71
  16  -3   3    5.52    3.64
  16  -3   3   -1.38    4.19
 -16  -3  -3   -0.47    5.90
  16   3  -3    6.81    5.13
 -16  -3  -3   -1.75    6.21
 -16  -3  -3    0.98    4.28
  16  -3  -3    1.20    3.30
 -16  -3   3   -0.15    4.53
  16   3   3    5.16    4.57
  16   3   3    6.78    3.83
  16  -3  -3    3.58    3.86
 -16   3  -3   -0.08    5.03
 -16   3  -3   12.89    6.18
  16   3   3    4.93    5.65
  16  -3   4    6.89    4.81
  16   3  -4    3.54    4.68
 -16   3   4   -0.34    5.10
 -16  -3  -4    2.45    4.53
  16  -3   4   -1.93    3.70
 -16  -3  -4   -0.08    6.45
  16   3  -4    2.76    4.95
  16  -3   4   -4.52    5.51
 -16  -3  -4    7.77    6.88
  16   3   4    2.91    3.83
 -16   3  -4   -3.86    6.05
  16  -3  -4   11.33    4.21
 -16   3  -4    2.49    6.13
  16   3   4    0.00    4.03
  16   3   4    7.81    6.20
  16  -3  -4    3.09    3.53
  16  -3   5   -0.52    4.79
  16   3  -5    5.04    5.22
 -16  -3  -5    3.05    4.54
 -16  -3  -5   -1.85    6.91
  16  -3   5    4.01    3.89
  16   3  -5    3.58    5.25
 -16   3   5    4.31    5.05
  16  -3   5   -4.13    6.67
 -16  -3  -5   -3.32    6.48
  16   3   5    2.56    6.16
 -16   3  -5   -3.17    6.52
  16   3   5    3.32    3.46
  16   3   5    1.56    4.08
 -16   3  -5    5.90    6.50
 -16   3  -5    2.96    3.96
 -16  -3   5   -1.26    4.81
 -17   3   0    0.88    4.90
  17  -3   0    6.84    3.55
  17  -3   0    3.90    3.72
  17   3   0    2.24    3.68
 -17  -3   0    2.98    5.28
  17   3   0    4.03    4.30
  17   3   0   16.39    4.82
 -17  -3   0    5.08    5.71
 -17  -3  -1    2.63    5.74
  17  -3   1    6.91    4.18
  17  -3   1    5.59    3.74
  17   3  -1    8.24    4.56
 -17  -3  -1    0.81    5.73
 -17   3   1    2.60    5.02
  17   3  -1    3.69    3.86
  17   3  -1   10.10    4.64
  17   3   1   10.88    4.59
  17   3   1    4.44    3.70
 -17  -3   1    5.25    5.26
  17  -3  -1    6.62    3.48
  17  -3  -1    5.20    3.75
 -17   3  -1   -0.97    4.99
  17   3   1   10.23    5.18
  17   3  -2    5.03    3.95
  17   3  -2    3.52    4.48
 -17  -3  -2    7.41    6.18
  17  -3   2    5.91    3.87
  17  -3   2    2.45    4.31
 -17  -3  -2   -3.90    5.98
  17   3  -2   15.13    5.10
 -17   3   2   -1.38    4.98
  17  -3  -2    3.18    3.37
  17   3   2    4.56    4.79
 -17   3  -2    0.12    5.05
  17  -3  -2    6.27    3.74
  17   3   2    7.30    3.91
  17   3   2   14.04    5.95
 -17  -3   2   -1.47    4.87
 -17  -3  -3    7.29    6.66
  17   3  -3   16.46    5.44
  17   3  -3   15.02    5.05
  17  -3   3    6.03    3.77
  17   3  -3    4.36    4.01
 -17  -3  -3   -0.39    4.60
 -17   3   3   -0.73    5.14
  17  -3   3    8.47    4.64
 -17  -3  -3   -1.10    6.72
  17  -3  -3    3.19    3.49
  17   3   3    9.36    4.96
  17  -3  -3   11.33    4.24
 -17   3  -3    6.73    6.35
 -17   3  -3    2.88    6.25
 -17  -3   3   -0.42    4.78
  17   3   3    3.77    6.06
  17   3   3    9.30    4.20
  17   3  -4   13.97    5.35
  17  -3   4    6.95    3.91
 -17  -3  -4   -0.74    4.66
 -17   3   4   -5.90    5.13
  17   3  -4    4.43    4.88
 -17  -3  -4   -4.70    6.64
 -17  -3  -4    6.24    7.09
  17  -3   4    3.21    4.64
  17  -3  -4    9.75    3.71
 -17   3  -4    5.76    6.55
  17  -3  -4    9.61    4.18
  17   3   4    0.01    4.79
 -17   3  -4   -2.81    6.45
  17   3   4    2.66    6.10
  17   3   4    5.81    4.10
 -18  -3   0   -3.00    5.68
  18  -3   0    7.61    3.67
  18   3   0    2.66    3.83
  18  -3   0   10.77    4.00
  18   3   0   15.20    4.69
  18   3   0   20.94    4.98
 -18   3   0    2.13    5.28
 -18  -3   0    7.24    5.88
 -18   3   1    3.21    5.39
  18   3  -1    5.57    4.00
 -18  -3  -1    4.65    6.36
  18   3  -1    7.83    4.57
  18  -3   1    6.89    3.81
 -18  -3  -1    6.44    6.20
  18  -3   1   11.31    4.38
  18  -3  -1    8.72    3.85
 -18  -3   1   -0.15    5.31
  18   3   1   15.31    4.99
  18   3   1    7.52    4.53
  18  -3  -1    4.92    3.52
  18   3   1    5.35    3.91
 -18   3  -1    0.36    5.22
  18  -3   2    5.08    4.14
 -18   3   2    2.71    5.64
  18  -3   2   14.06    4.56
 -18  -3  -2   14.47    6.83
 -18  -3  -2    4.50    6.30
  18   3  -2   14.04    5.14
  18   3  -2   11.45    4.22
  18   3  -2    7.90    4.71
  18  -3  -2    4.30    3.42
 -18   3  -2   -0.08    5.32
 -18  -3   2    2.55    5.40
  18   3   2   14.22    5.16
  18   3   2    7.86    4.04
  18  -3  -2   15.20    3.86
  18   3   2   14.43    5.79
 -18  -3  -3   10.39    6.83
  18  -3   3    6.76    3.68
  18  -3   3    8.01    4.64
  18   3  -3   16.22    4.40
 -18  -3  -3    8.80    5.16
 -18  -3  -3    3.14    7.08
  18   3  -3   12.26    4.88
  18   3  -3   11.30    5.31
 -18   3   3    1.86    5.45
 -18   3  -3    1.62    6.37
 -18  -3   3    5.35    5.60
  18   3   3    9.65    5.18
 -18   3  -3    7.41    6.44
  18  -3  -3   12.93    3.86
  18   3   3    6.27    4.11
  18  -3  -3   13.36    4.31
  18   3   3   14.68    6.21
 -19  -3   0    0.39    5.93
  19   3   0    5.12    3.99
  19   3   0   16.74    5.15
 -19   3   0    0.33    5.52
  19  -3   0    8.87    3.73
  19   3   0    8.62    4.67
 -19  -3   0    0.75    5.83
  19  -3   0   11.98    4.06
 -19  -3  -1    3.17    6.57
  19   3  -1   14.22    4.74
  19  -3   1    9.09    4.33
  19   3  -1   12.73    4.37
 -19  -3  -1    3.79    6.49
  19  -3   1    3.71    3.86
 -19   3   1   -3.13    5.67
 -19  -3   1    3.89    5.88
  19   3   1   14.03    4.72
 -19   3  -1    0.19    5.57
  19   3   1   20.14    5.10
  19  -3  -1    2.91    3.44
  19  -3  -1    6.66    3.86
 -19  -3   1    6.08    5.89
  19   3   1    7.82    4.12
  19  -3   2    6.87    4.23
 -19  -3  -2    0.97    6.54
 -19   3   2    2.19    5.82
  19   3  -2    4.51    4.11
  19   3  -2   12.38    4.89
  19   3  -2   16.00    5.25
 -19  -3  -2    1.39    6.64
  19  -3   2   10.95    4.72
  19   3   2   16.48    5.82
 -19   3  -2    0.74    5.78
 -19  -3   2   -2.26    5.51
  19  -3  -2    5.87    3.58
  19   3   2    6.05    4.85
  19  -3  -2   12.14    4.23
  19   3   2    8.39    4.21
   0   4   0  156.90    5.09
   0   4   0  146.92    3.55
   0  -4   0  146.68    4.59
   0  -4   0  146.61    3.55
   0  -4   1  185.00    4.30
   0  -4   1  188.03    4.15
   0   4  -1  197.30    6.27
   0  -4   1  183.32    4.31
   0  -4  -1  197.51    4.18
   0   4  -1  191.24    4.53
   0   4   1  191.63    5.38
   0  -4  -1  189.76    4.92
   0  -4  -1  188.52    4.55
   0   4  -1  178.61    4.06
   0   4  -2  239.87    6.04
   0   4   2  237.73    6.81
   0  -4  -2  244.67    6.71
   0  -4   2  246.74    5.33
   0   4   2  238.54    5.94
   0  -4  -2  251.42    5.71
   0  -4   2  238.09    5.59
   0   4  -2  253.58    7.52
   0  -4  -2  253.68    5.22
   0  -4   2  244.65    6.03
   0  -4  -2  250.44    6.06
   0   4  -3  114.22    4.80
   0  -4  -3  111.81    5.24
   0  -4  -3  111.56    4.16
   0  -4   3  105.64    4.10
   0  -4   3  106.29    4.68
   0  -4   3  114.00    3.83
   0   4   3  112.11    5.48
   0   4   3  112.53    4.74
   0   4  -3  108.52    5.85
   0  -4  -3  110.08    4.47
   0  -4  -3  103.93    3.56
   0  -4   4   53.92    3.96
   0  -4   4   55.55    4.42
   0  -4  -4   52.44    5.07
   0  -4  -4   52.03    4.23
   0  -4   4   50.33    3.53
   0   4  -4   49.87    5.44
   0   4   4   48.88    5.24
   0   4   4   54.15    4.71
   0  -4  -4   47.53    3.78
   0  -4  -4   49.33    3.18
   0  -4  -5   53.54    4.69
   0  -4   5   51.91    4.23
   0  -4  -5   54.10    6.21
   0  -4  -5   56.26    3.87
   0  -4  -5   54.55    5.18
   0  -4   5   56.06    4.88
   0   4   5   59.78    6.02
   0  -4   5   53.19    5.64
   0   4  -5   55.64    6.54
   0   4   6   44.24    6.45
   0  -4   6   41.55    5.06
   0  -4   6   41.61    4.70
   0  -4  -6   38.59    6.93
   0  -4  -6   44.70    5.57
   0  -4   6   39.66    6.05
   0   4  -6   40.83    6.89
   0  -4  -6   44.36    4.23
   0  -4  -6   42.26    5.37
   0  -4  -7   11.52    4.36
   0  -4   7    8.75    4.54
   0   4  -7   13.29    5.79
   0  -4  -7    7.71    5.37
   0  -4   7    8.69    5.19
   0   4   7    3.00    4.02
   0  -4  -7   12.30    3.20
   0   4   7    4.79    5.68
   0  -4  -7   16.14    4.16
   0  -4   7    4.27    3.90
   0   4   8  -11.08    6.36
   0   4   8    6.15    6.17
   0  -4  -8   11.37    3.50
   0  -4   8   -4.82    4.12
   0  -4   8   -4.21    5.02
   0  -4   8   -1.88    5.68
   0  -4  -8    7.52    4.28
   0  -4  -8    2.41    5.69
   0  -4  -8    4.80    3.71
   0   4  -8    3.35    5.92
   0  -4  -9    4.74    3.73
   0   4  -9    3.05    6.65
   0   4   9    8.23    6.76
   0  -4  -9    7.62    4.23
   0  -4  -9   -5.24    5.67
   0  -4  -9    6.79    3.85
   0  -4   9   -5.86    6.67
   0  -4   9  -12.50    4.30
   0  -4   9   -7.91    5.68
  -1   4   0   78.53    2.21
  -1   4   0   92.35    4.39
   1   4   0   90.91    4.19
   1  -4   0   84.30    2.77
   1   4   0   87.77    3.22
  -1   4   0   77.84    2.68
  -1   4   0   79.77    2.48
   1  -4   0   85.32    2.54
  -1  -4   0   79.73    3.05
  -1  -4   0   81.83    3.61
   1  -4   1  102.87    3.01
  -1  -4  -1   98.39    3.04
   1   4  -1   98.74    4.76
  -1  -4  -1   90.93    4.30
  -1  -4  -1   95.55    3.41
  -1   4   1  107.21    4.29
  -1  -4  -1  100.51    3.41
  -1  -4  -1  102.72    3.77
   1   4  -1  103.48    3.52
   1  -4   1  102.41    3.31
   1  -4  -1  102.38    2.97
   1   4   1   91.20    4.30
   1  -4  -1   99.93    3.50
   1   4   1  102.93    3.92
   1   4   1  103.11    3.73
  -1  -4   1   98.79    2.91
  -1  -4   1  101.77    3.21
   1  -4  -1  101.59    3.22
  -1   4  -1  103.29    5.12
  -1   4  -1   92.61    2.85
   1   4  -2   81.35    4.63
  -1  -4  -2   82.11    3.93
   1  -4   2   82.96    3.41
   1   4  -2   83.85    3.72
  -1  -4  -2   87.43    3.42
  -1   4   2   86.12    3.49
   1  -4   2   82.08    3.11
  -1   4   2   88.04    4.38
   1  -4   2   80.89    3.51
  -1  -4  -2   86.98    3.04
  -1  -4  -2   84.03    3.74
  -1  -4   2   85.98    3.05
  -1   4  -2   85.49    3.64
  -1  -4   2   85.28    3.37
   1   4   2   85.15    3.84
   1  -4  -2   84.67    3.65
   1  -4  -2   87.46    3.33
   1   4   2   83.38    4.08
  -1   4  -2   86.96    4.93
  -1  -4   2   86.72    3.67
   1  -4  -2   86.84    4.23
   1  -4  -2   88.78    2.90
  -1   4   3  174.22    6.76
  -1  -4  -3  166.39    6.16
   1   4  -3  175.97    5.87
  -1  -4  -3  175.59    4.52
  -1  -4  -3  170.07    5.51
   1  -4   3  167.40    5.59
   1   4  -3  176.74    7.07
   1  -4   3  170.74    5.15
  -1  -4  -3  177.99    5.18
  -1   4   3  172.14    5.60
   1  -4   3  170.30    4.76
   1  -4  -3  171.77    4.42
  -1  -4   3  167.99    5.10
  -1  -4   3  173.02    5.85
  -1  -4   3  170.50    4.72
   1  -4  -3  179.59    5.12
   1  -4  -3  176.67    5.51
  -1   4  -3  176.91    7.07
   1   4   3  174.49    5.84
   1   4   3  176.16    6.58
   1  -4  -3  175.45    6.54
  -1  -4  -4  115.18    4.88
  -1  -4  -4  106.78    5.31
  -1  -4  -4  112.38    4.14
  -1  -4  -4  115.76    6.35
   1   4  -4  113.93    5.60
   1  -4   4  113.57    4.51
   1  -4   4  118.75    5.74
   1   4  -4  105.57    6.69
  -1   4   4  113.88    5.66
  -1   4   4  111.89    6.65
   1  -4   4  111.18    4.84
  -1  -4   4  107.72    4.85
  -1   4  -4  114.44    6.84
   1  -4  -4  113.16    4.80
   1  -4  -4  116.54    4.02
   1  -4  -4  118.57    5.26
   1   4   4  111.60    6.55
  -1  -4   4  115.05    4.50
   1   4   4  113.93    5.79
  -1  -4   4  116.74    5.56
   1  -4  -4  114.80    6.36
   1   4  -5   37.04    6.28
  -1  -4  -5   39.09    4.45
   1  -4   5   37.88    4.21
  -1  -4  -5   39.60    5.88
   1  -4   5   41.81    5.42
  -1   4   5   37.28    6.21
  -1  -4  -5   41.38    4.66
  -1   4   5   41.00    5.71
  -1  -4  -5   36.86    3.66
   1  -4   5   41.88    4.67
   1  -4  -5   34.24    3.49
  -1  -4   5   37.16    5.16
  -1  -4   5   36.37    3.92
  -1   4  -5   36.66    6.07
   1   4   5   44.20    5.78
   1  -4  -5   40.10    5.95
   1  -4  -5   38.12    4.43
   1  -4  -5   38.09    4.47
  -1  -4   5   37.96    4.64
   1  -4   6   29.24    5.66
   1   4  -6   24.43    6.50
  -1  -4  -6   26.29    6.16
  -1   4   6   34.55    6.08
   1  -4   6   27.39    4.37
  -1  -4  -6   29.75    3.90
  -1  -4  -6   32.37    5.09
  -1   4   6   29.62    6.51
   1  -4   6   26.79    4.90
  -1  -4  -6   32.71    4.69
  -1  -4   6   29.94    5.65
  -1  -4   6   28.62    4.78
  -1  -4   6   29.39    4.21
   1  -4  -6   30.27    4.80
   1   4   6   30.91    4.54
  -1   4  -6   27.09    6.54
   1  -4  -6   33.14    6.46
   1  -4  -6   29.13    4.50
   1   4   6   28.41    5.96
   1  -4  -6   32.27    3.95
   1  -4   7    5.97    4.06
   1   4  -7   15.20    6.11
  -1  -4  -7   22.33    4.81
   1  -4   7   12.51    5.65
  -1  -4  -7   19.32    4.31
  -1  -4  -7    9.86    5.46
   1  -4   7    4.95    4.53
  -1   4   7   16.44    5.92
  -1   4   7   10.99    6.02
  -1  -4  -7   14.90    3.42
  -1  -4   7    7.09    5.01
   1   4   7    6.42    4.16
  -1   4  -7   13.56    5.95
  -1  -4   7    5.68    3.80
  -1  -4   7   13.83    4.66
   1  -4  -7   15.55    4.25
   1  -4  -7   18.51    3.53
   1  -4  -7   10.61    5.85
   1   4   7    7.32    5.76
   1  -4  -7   13.63    3.90
  -1  -4  -8    8.47    4.52
  -1  -4  -8    8.28    3.31
  -1   4   8    4.99    6.04
   1  -4   8   -3.81    4.18
   1  -4   8   -0.57    5.23
   1  -4   8    0.82    6.16
  -1  -4  -8    4.71    6.03
  -1   4   8   -6.18    6.56
  -1  -4  -8   10.60    4.23
   1   4  -8    5.77    6.43
  -1  -4   8    1.94    4.26
  -1   4  -8    5.58    6.13
   1   4   8   -8.37    4.70
   1  -4  -8    3.07    5.95
   1  -4  -8   15.11    4.43
  -1  -4   8    5.47    5.29
   1   4   8  -13.13    6.29
  -1  -4   8   11.24    6.38
   1  -4  -8   13.19    3.48
   1  -4  -8   10.57    4.00
  -1  -4  -9   -2.78    5.86
  -1  -4  -9    7.54    4.07
   1  -4   9  -13.26    6.55
   1   4  -9    3.76    6.70
  -1   4   9    6.18    6.53
   1  -4   9   -9.73    5.47
  -1  -4  -9    4.04    4.24
   1  -4   9   -2.45    4.93
  -1  -4  -9    6.51    3.43
  -1  -4   9   -3.34    5.95
  -1   4  -9    7.54    6.89
  -1  -4   9   -9.82    4.44
   1   4   9    7.35    6.65
   1  -4  -9   -3.37    5.89
  -1  -4   9   -6.06    6.59
   1  -4  -9    7.25    4.13
   2  -4   0  374.52    6.85
  -2   4   0  369.73    7.01
  -2   4   0  365.69    7.32
  -2  -4   0  351.11    7.48
   2   4   0  385.97    7.48
  -2   4   0  379.21    8.55
   2   4   0  363.06    6.36
  -2   4   0  364.68    6.55
   2  -4   0  381.16    6.30
   2   4   0  368.63    7.90
  -2  -4   0  376.46    6.21
   2   4   0  375.28    6.26
  -2  -4   0  361.50    6.30
   2   4  -1  104.20    3.12
  -2   4   1  107.24    4.39
   2   4  -1  101.76    4.60
   2  -4   1  100.71    3.10
  -2  -4  -1   98.71    3.63
   2   4  -1  106.03    3.77
  -2  -4  -1  103.58    3.11
   2  -4   1  100.03    3.35
  -2  -4  -1  102.14    3.55
  -2  -4  -1  101.15    3.89
   2  -4  -1  104.75    3.56
   2  -4  -1  103.32    3.22
   2   4   1  100.23    3.68
   2   4   1  107.25    4.09
   2  -4  -1  103.96    2.89
  -2   4  -1  106.61    5.26
   2   4   1  101.23    3.62
   2   4  -2  159.65    4.93
  -2  -4  -2  156.90    5.05
   2  -4   2  156.28    4.66
   2   4  -2  157.65    5.93
   2  -4   2  156.12    4.51
  -2  -4  -2  161.76    4.58
  -2   4   2  166.44    5.72
   2  -4   2  161.90    4.23
  -2  -4  -2  154.78    4.92
  -2  -4  -2  159.08    4.05
   2  -4  -2  163.93    5.61
   2   4   2  154.02    5.21
   2  -4  -2  165.21    3.96
  -2  -4   2  160.74    4.44
   2  -4  -2  165.99    4.41
   2   4   2  165.25    5.16
  -2   4  -2  161.38    6.23
   2  -4  -2  163.85    4.77
  -2  -4   2  169.47    4.16
   2  -4   3  132.56    4.31
   2  -4   3  129.28    4.69
  -2  -4  -3  129.65    5.47
  -2  -4  -3  128.05    4.57
  -2  -4  -3  126.36    5.03
   2   4  -3  138.73    5.24
  -2   4   3  129.07    6.13
   2   4  -3  129.49    6.26
  -2   4   3  126.57    4.83
   2  -4   3  128.71    5.03
  -2  -4  -3  127.50    3.95
   2   4   3  127.18    5.69
  -2  -4   3  129.52    4.13
   2   4   3  133.65    5.38
   2  -4  -3  129.16    4.70
  -2   4  -3  130.16    6.41
  -2  -4   3  127.66    4.42
  -2  -4   3  128.52    5.12
   2  -4  -3  127.70    5.85
   2  -4  -3  132.63    3.81
   2  -4  -3  123.89    4.26
  -2  -4  -4   50.60    4.94
  -2   4   4   46.06    4.45
  -2  -4  -4   46.59    3.97
   2  -4   4   45.56    3.60
   2  -4   4   42.21    3.98
  -2  -4  -4   48.51    3.29
  -2   4   4   49.67    5.31
   2   4  -4   54.09    4.49
  -2  -4  -4   47.40    4.40
   2   4  -4   45.68    5.45
   2  -4   4   49.83    4.53
   2  -4  -4   46.31    3.59
   2   4   4   48.33    4.89
   2  -4  -4   52.34    5.00
  -2  -4   4   44.38    3.38
   2  -4  -4   49.06    3.09
  -2  -4   4   53.00    4.53
  -2  -4   4   55.10    3.98
   2  -4  -4   44.65    3.99
  -2   4  -4   51.57    5.72
   2  -4   5   45.13    5.69
   2  -4   5   47.30    4.46
   2  -4   5   50.96    5.04
  -2  -4  -5   45.10    5.98
  -2  -4  -5   45.46    5.34
   2   4  -5   46.07    6.56
  -2   4   5   46.76    6.36
  -2  -4  -5   41.49    4.70
  -2  -4  -5   43.00    3.78
  -2   4   5   50.07    5.76
  -2  -4   5   46.87    4.74
   2  -4  -5   44.23    3.59
  -2  -4   5   42.52    4.09
   2  -4  -5   49.61    4.48
   2  -4  -5   41.74    4.76
   2   4   5   49.41    6.04
  -2  -4   5   39.97    5.21
   2  -4  -5   44.93    6.03
  -2   4  -5   43.38    6.59
   2  -4   6   21.69    4.27
   2   4  -6   20.01    6.32
  -2  -4  -6   14.64    4.79
  -2   4   6   21.41    5.56
  -2  -4  -6   13.08    5.43
  -2   4   6   17.16    5.87
   2  -4   6   18.69    5.35
  -2  -4  -6   15.83    4.36
  -2  -4  -6   14.18    3.55
   2  -4   6   13.35    4.54
   2   4   6   18.16    3.24
   2   4   6   23.58    4.45
  -2  -4   6   15.65    4.46
   2  -4  -6   19.81    4.44
  -2  -4   6   23.59    5.27
   2  -4  -6   19.39    5.84
  -2  -4   6   16.27    3.79
  -2   4  -6   20.10    6.23
   2   4   6   21.06    5.78
   2  -4  -6   18.07    4.05
   2  -4  -6   17.88    3.47
  -2  -4  -7   13.86    3.36
  -2  -4  -7   13.17    5.66
  -2  -4  -7   10.53    3.99
  -2  -4  -7   22.58    4.86
  -2   4   7   12.36    6.08
  -2   4   7   13.96    5.87
   2  -4   7    8.07    4.11
   2   4  -7   16.58    6.07
   2  -4   7    8.56    4.69
   2  -4   7   10.59    5.66
   2  -4  -7    8.11    5.66
  -2  -4   7    6.75    3.55
   2  -4  -7   16.38    3.28
   2  -4  -7   11.66    3.75
   2   4   7    3.44    5.71
  -2  -4   7   13.17    5.07
  -2   4  -7   11.46    5.88
  -2  -4   7    7.93    4.53
   2  -4  -7   11.66    3.95
   2   4   7    6.54    4.27
  -2  -4  -8    6.18    6.11
   2   4  -8   10.16    6.79
  -2   4   8   10.73    6.49
  -2  -4  -8   11.82    4.42
  -2  -4  -8   16.11    5.03
   2  -4   8   -0.84    5.22
   2  -4   8   -2.00    4.23
  -2   4   8   -0.34    6.88
   2  -4   8   -0.68    6.18
  -2  -4  -8    9.03    3.49
   2  -4  -8   10.14    6.42
  -2  -4   8    8.82    6.00
   2   4   8   -0.79    4.72
   2  -4  -8    6.68    3.17
  -2  -4   8    5.96    5.12
  -2   4  -8   11.00    6.60
  -2  -4   8    0.91    4.27
   2  -4  -8    7.84    3.82
   2  -4  -8    8.15    3.97
   2   4   8   -2.15    6.78
   2  -4   9   -2.58    7.21
  -2  -4  -9   12.54    5.06
  -2  -4  -9   -2.05    6.04
  -2  -4  -9   14.54    4.64
   2   4  -9    8.07    7.17
  -2   4   9   -9.24    7.80
  -2   4   9   10.44    6.59
   2  -4   9   -2.84    4.67
   2  -4   9   -9.76    5.85
  -2  -4  -9    9.37    3.24
  -2  -4   9   -3.25    5.68
  -2  -4   9   -0.33    6.85
  -2  -4   9   -8.88    4.46
   2  -4  -9    4.68    4.22
   2  -4  -9   14.31    4.24
  -2   4  -9    7.21    6.65
   2   4   9   14.17    6.99
   2  -4  -9    4.67    6.68
   3   4   0  432.98    7.56
   3  -4   0  433.82    7.99
  -3   4   0  438.74    9.62
   3   4   0  432.25    7.35
   3   4   0  444.10    8.68
  -3   4   0  437.45    8.03
  -3   4   1  360.38    8.29
   3  -4   1  354.54    6.81
   3   4  -1  359.84    7.43
  -3  -4  -1  349.65    7.41
  -3  -4  -1  353.35    7.01
   3   4  -1  350.74    6.65
  -3  -4  -1  345.77    6.13
   3   4  -1  341.07    7.95
   3  -4   1  350.55    6.54
  -3  -4  -1  353.27    6.55
   3  -4  -1  358.04    6.46
   3   4   1  361.99    6.42
   3   4   1  365.25    6.16
   3   4   1  362.33    7.76
   3  -4  -1  357.37    7.20
  -3   4  -1  363.45    6.79
   3  -4  -1  353.18    6.87
  -3   4  -1  358.56    8.96
   3   4  -2  117.59    4.39
   3  -4   2  114.44    4.07
   3   4  -2  116.40    5.24
  -3  -4  -2  116.84    4.12
  -3  -4  -2  116.19    4.48
  -3   4   2  124.25    5.17
  -3  -4  -2  119.03    4.26
   3  -4   2  116.04    3.66
  -3  -4  -2  118.86    3.60
   3   4  -2  118.20    3.79
   3  -4  -2  116.43    3.68
  -3  -4   2  112.33    3.78
   3   4   2  117.15    4.69
   3   4   2  111.51    4.34
   3  -4  -2  116.56    4.02
   3  -4  -2  118.09    4.97
   3  -4  -2  112.48    3.24
  -3   4  -2  117.75    5.51
  -3   4   3  102.87    5.58
  -3   4   3  100.40    4.46
  -3  -4  -3  101.40    4.78
   3  -4   3  101.92    4.76
   3   4  -3  102.87    5.82
  -3  -4  -3  102.48    4.34
   3  -4   3  108.19    4.47
   3  -4   3  106.37    4.03
  -3  -4  -3   99.47    3.67
   3   4  -3  103.40    4.76
  -3  -4  -3  103.14    4.99
   3  -4  -3  104.20    4.32
  -3   4  -3  103.70    5.98
  -3  -4   3  107.37    3.79
   3  -4  -3  107.87    3.98
  -3  -4   3  104.26    4.13
   3   4   3  107.98    5.22
   3  -4  -3  109.39    5.55
  -3  -4   3  105.05    4.74
   3  -4  -3  105.49    3.46
   3   4   3  102.09    5.22
  -3   4   4   66.16    4.81
  -3  -4  -4   66.97    5.31
  -3   4   4   61.25    5.64
   3  -4   4   64.63    3.98
   3   4  -4   64.21    5.82
   3  -4   4   62.16    4.42
   3  -4   4   70.40    5.04
  -3  -4  -4   66.48    4.23
   3   4  -4   66.24    4.83
  -3  -4  -4   66.63    3.64
  -3  -4  -4   62.02    4.75
   3  -4  -4   64.14    3.82
   3   4   4   67.12    3.06
  -3  -4   4   62.20    4.81
   3  -4  -4   57.66    5.27
   3   4   4   64.73    5.30
  -3  -4   4   57.12    4.06
  -3   4  -4   62.62    5.86
   3   4   4   59.92    3.86
   3  -4  -4   62.39    4.20
  -3  -4   4   62.47    3.62
   3  -4  -4   64.30    3.18
  -3  -4  -5   41.93    5.93
   3   4  -5   39.73    5.21
   3  -4   5   48.38    5.88
   3  -4   5   47.98    4.54
  -3  -4  -5   44.14    3.93
  -3   4   5   47.33    5.78
   3  -4   5   44.89    5.08
  -3  -4  -5   40.99    5.54
  -3   4   5   47.01    6.39
   3   4  -5   44.46    6.72
  -3  -4  -5   38.15    4.83
   3  -4  -5   43.42    4.38
   3  -4  -5   47.07    4.84
  -3  -4   5   51.01    4.16
   3  -4  -5   43.46    3.51
  -3   4  -5   40.93    6.58
  -3  -4   5   42.18    4.78
   3   4   5   47.06    6.29
   3   4   5   45.24    4.59
  -3  -4   5   43.43    5.26
   3  -4  -5   42.83    6.04
  -3   4   6   40.50    6.93
  -3  -4  -6   40.23    6.65
   3  -4   6   34.57    4.68
  -3  -4  -6   42.68    5.30
   3  -4   6   40.63    6.24
  -3   4   6   45.60    6.43
   3   4  -6   44.19    7.43
  -3  -4  -6   40.18    5.83
  -3  -4  -6   39.08    4.25
   3  -4   6   33.59    5.34
  -3  -4   6   33.70    4.25
  -3   4  -6   39.37    7.24
  -3  -4   6   40.03    5.09
   3  -4  -6   40.22    3.84
   3   4   6   42.06    6.44
   3  -4  -6   40.53    6.72
  -3  -4   6   34.12    5.66
   3  -4  -6   40.25    5.01
   3   4   6   48.45    5.33
   3  -4  -6   36.75    4.80
   3   4   6   37.31    4.05
  -3   4   7   23.37    6.27
   3  -4   7   17.10    5.05
   3  -4   7   20.69    6.25
  -3  -4  -7   23.01    6.29
   3  -4   7   22.05    4.53
  -3  -4  -7   26.84    4.73
  -3   4   7   28.95    6.57
   3   4  -7   24.90    6.96
  -3  -4  -7   26.55    5.26
   3  -4  -7   17.70    5.98
   3   4   7   18.69    3.39
   3   4   7   17.82    6.32
  -3  -4   7   12.43    3.70
  -3  -4   7   18.96    5.77
   3  -4  -7   25.54    4.45
   3  -4  -7   26.19    4.32
  -3   4  -7   25.34    6.80
   3   4   7   17.40    4.56
  -3  -4   7   18.86    4.91
   3  -4  -7   27.69    3.64
   3  -4   8   -1.31    6.44
  -3  -4  -8    4.40    3.25
  -3   4   8   -4.77    6.54
  -3   4   8   10.53    6.31
  -3  -4  -8    3.72    5.77
  -3  -4  -8   11.95    4.74
  -3  -4  -8    9.73    4.22
   3   4  -8    2.44    6.37
   3  -4   8   -8.08    4.05
   3  -4   8   -9.58    5.08
  -3  -4   8    1.11    5.20
  -3   4  -8    4.05    5.94
   3  -4  -8    8.00    3.79
   3  -4  -8   10.95    3.24
   3   4   8  -10.11    6.24
  -3  -4   8   -6.42    5.14
   3   4   8   -2.75    4.51
   3  -4  -8    6.09    4.05
   3  -4  -8    1.67    5.94
  -3  -4   8    3.60    3.91
   4  -4   0   23.72    1.73
  -4  -4   0   19.75    1.97
  -4   4   0   19.99    1.94
   4  -4   0   23.40    2.30
  -4   4   0   20.98    2.35
   4   4   0   20.36    1.75
   4   4   0   21.21    2.10
   4   4   0   20.87    2.99
  -4  -4   0   20.93    2.56
  -4   4   0   26.43    3.75
   4   4  -1  140.74    3.59
  -4  -4  -1  140.23    4.23
  -4   4   1  145.85    5.23
  -4  -4  -1  142.96    3.80
   4  -4   1  143.92    3.77
   4  -4   1  135.11    4.00
   4   4  -1  141.85    3.87
  -4  -4  -1  137.29    4.60
   4   4  -1  144.72    4.62
   4  -4  -1  143.90    4.23
   4  -4  -1  146.80    3.55
  -4   4  -1  146.69    4.11
  -4   4  -1  145.24    5.95
   4   4   1  146.18    3.38
   4   4   1  147.17    5.02
   4   4   1  142.97    3.69
  -4  -4  -2  115.67    3.64
   4   4  -2  114.39    3.78
   4   4  -2  115.94    4.46
  -4  -4  -2  110.41    4.11
  -4  -4  -2  115.77    4.55
   4   4  -2  109.70    5.09
   4  -4   2  107.77    3.61
  -4   4   2  115.14    5.11
   4  -4   2  109.76    3.99
  -4   4  -2  113.70    5.51
   4  -4  -2  107.93    3.20
   4  -4  -2  115.62    4.03
   4   4   2  117.76    3.08
   4   4   2  112.37    3.52
   4  -4  -2  106.68    3.63
  -4   4  -2  116.78    3.86
   4   4   2  115.53    4.80
  -4  -4  -3   41.64    3.78
   4  -4   3   43.30    3.12
  -4   4   3   39.44    3.46
   4   4  -3   43.68    3.85
  -4  -4  -3   36.26    3.89
   4   4  -3   38.82    4.64
   4  -4   3   41.57    3.59
  -4  -4  -3   35.64    2.93
  -4  -4  -3   38.19    3.52
  -4   4   3   47.15    4.66
   4  -4   3   39.85    3.87
   4  -4  -3   38.43    4.30
   4   4   3   40.47    3.97
   4  -4  -3   41.72    3.35
  -4   4  -3   40.87    4.86
   4  -4  -3   39.97    3.00
   4  -4  -3   40.24    2.50
   4   4   3   38.30    4.35
  -4  -4   3   44.34    3.30
  -4   4  -3   41.27    3.34
   4   4   3   43.28    3.18
   4   4   3   40.59    2.42
   4  -4   4   78.17    4.78
   4   4  -4   75.05    6.33
  -4  -4  -4   77.00    4.73
   4  -4   4   78.03    4.26
  -4   4   4   75.99    4.99
  -4  -4  -4   74.31    5.42
  -4  -4  -4   68.20    3.81
  -4  -4  -4   75.36    5.25
   4  -4   4   76.69    5.42
   4   4  -4   75.79    5.17
  -4   4   4   75.94    6.10
  -4  -4   4   79.94    4.48
   4  -4  -4   81.12    4.53
   4   4   4   74.53    5.76
  -4  -4   4   74.00    5.17
   4  -4  -4   76.40    5.94
   4  -4  -4   82.55    4.10
  -4   4  -4   74.16    6.34
   4   4   4   77.52    3.39
   4  -4  -4   76.93    3.43
  -4  -4   4   77.75    3.93
   4   4   4   77.25    4.33
  -4  -4  -5   23.81    4.99
  -4   4   5   22.31    5.42
   4   4  -5   19.04    4.16
  -4  -4  -5   24.80    3.49
   4   4  -5   21.71    5.64
   4  -4   5   17.28    3.60
  -4  -4  -5   24.25    4.61
   4  -4   5   20.27    3.95
  -4  -4  -5   22.36    4.12
  -4   4   5   25.30    4.60
   4  -4   5   27.61    5.05
   4  -4  -5   23.14    5.12
  -4  -4   5   20.52    4.23
   4  -4  -5   26.31    3.58
   4   4   5   23.95    3.79
   4   4   5   26.55    5.15
  -4  -4   5   22.07    3.84
   4  -4  -5   22.28    3.74
   4   4   5   22.51    2.95
  -4  -4   5   21.51    3.46
   4  -4  -5   24.17    3.10
  -4   4  -5   25.91    5.76
  -4  -4  -6   18.45    5.30
   4  -4   6   16.12    5.65
   4  -4   6   16.80    4.09
  -4  -4  -6   19.74    4.57
  -4   4   6   20.66    5.97
  -4   4   6   22.79    5.71
   4  -4   6   14.37    4.58
   4   4  -6   15.96    6.32
  -4  -4  -6   17.44    5.61
  -4  -4  -6   17.33    3.81
  -4  -4   6   22.80    4.90
   4   4   6   15.74    3.41
  -4  -4   6   20.74    3.92
   4  -4  -6   18.00    3.79
  -4  -4   6   19.27    4.98
   4   4   6   11.09    5.52
   4  -4  -6   23.17    6.11
  -4   4  -6   13.27    6.05
   4  -4  -6   13.64    4.13
   4   4   6   14.55    4.36
   4  -4  -6   23.44    3.48
  -4   4   7    9.10    5.73
  -4  -4  -7   18.38    5.09
   4  -4   7    2.45    4.68
  -4  -4  -7   17.44    3.65
   4  -4   7   11.72    4.17
  -4  -4  -7   11.86    5.60
  -4   4   7   13.47    5.71
   4  -4   7    9.58    5.94
  -4  -4  -7   15.59    4.42
   4   4  -7   15.93    6.47
   4  -4  -7   16.09    3.33
   4   4   7    5.91    5.57
  -4  -4   7    6.61    3.47
   4   4   7   14.47    3.38
   4  -4  -7    8.70    5.79
   4  -4  -7   16.10    3.75
  -4  -4   7   14.39    5.41
  -4   4  -7   16.11    6.17
   4   4   7   16.62    4.35
   4  -4  -7   11.88    3.96
  -4  -4   7   11.73    4.74
  -4  -4  -8   16.94    4.66
  -4  -4  -8   10.51    6.17
   4   4  -8   19.50    7.28
   4  -4   8    4.37    4.54
   4  -4   8    4.30    6.85
  -4  -4  -8   16.76    5.18
   4  -4   8    4.18    5.57
  -4   4   8   10.36    6.89
  -4   4   8   15.99    6.49
   4   4   8    1.86    6.96
   4   4   8   12.01    4.80
   4  -4  -8   21.20    4.30
   4  -4  -8   18.44    7.07
  -4   4  -8   14.76    6.77
   4  -4  -8   15.53    3.39
  -4  -4   8    4.52    4.07
  -4  -4   8   18.30    6.28
  -4  -4   8    9.75    5.54
   4  -4  -8   13.88    4.34
   5   4   0  127.88    4.69
  -5  -4   0  121.78    4.06
   5   4   0  128.58    3.34
  -5   4   0  127.93    5.33
   5  -4   0  125.62    3.99
   5   4   0  127.05    3.66
   5  -4   0  123.58    3.19
  -5   4   0  120.48    3.91
   5   4  -1   76.49    2.80
   5   4  -1   74.61    3.77
   5   4  -1   74.39    3.04
  -5  -4  -1   74.70    3.49
  -5   4   1   77.25    4.31
  -5  -4  -1   72.43    2.95
  -5  -4  -1   73.83    3.87
   5  -4   1   74.14    2.95
   5  -4   1   76.69    3.30
  -5   4   1   73.64    3.42
  -5   4  -1   76.06    4.99
   5   4   1   73.83    2.61
   5   4   1   72.81    4.19
  -5   4  -1   79.00    3.32
   5  -4  -1   76.79    3.39
   5   4   1   75.97    2.99
  -5  -4  -2   51.69    3.02
   5  -4   2   58.50    3.04
   5   4  -2   53.42    3.04
   5  -4   2   49.99    3.39
  -5  -4  -2   56.82    3.58
   5   4  -2   53.28    3.47
   5   4  -2   56.16    4.12
  -5  -4  -2   54.21    3.96
  -5   4   2   54.13    4.16
   5  -4  -2   56.36    3.27
  -5   4  -2   53.58    3.33
  -5   4  -2   56.61    4.74
   5   4   2   54.21    2.98
   5   4   2   51.33    4.11
   5  -4  -2   51.00    2.48
   5   4   2   54.29    2.48
   5  -4   3   38.40    3.99
  -5   4   3   35.73    4.55
   5   4  -3   35.63    3.20
  -5  -4  -3   35.32    3.61
  -5  -4  -3   35.35    4.13
   5  -4   3   38.94    3.63
  -5  -4  -3   31.71    3.07
   5  -4   3   38.71    3.16
   5   4  -3   35.08    3.75
   5   4  -3   35.37    4.59
   5   4   3   37.40    2.53
  -5   4  -3   36.60    3.65
   5  -4  -3   36.08    4.39
   5  -4  -3   36.48    2.46
   5   4   3   33.06    3.17
  -5   4  -3   42.08    3.21
  -5  -4   3   35.24    3.25
   5  -4  -3   37.00    3.28
  -5   4  -3   35.73    4.80
   5  -4  -3   34.69    2.94
   5   4   3   34.73    4.56
   5   4  -4   44.91    5.93
  -5  -4  -4   48.99    5.04
   5  -4   4   47.84    3.94
  -5   4   4   47.79    4.60
   5  -4   4   47.83    4.38
   5   4  -4   46.89    4.74
  -5   4   4   48.96    5.73
   5  -4   4   51.54    5.22
  -5  -4  -4   49.46    4.49
  -5  -4  -4   48.12    3.66
  -5  -4  -4   48.91    4.92
   5  -4  -4   50.32    4.08
   5   4   4   53.80    4.16
   5  -4  -4   51.50    3.11
  -5  -4   4   46.53    4.69
  -5  -4   4   46.67    3.52
  -5   4  -4   48.35    6.15
   5  -4  -4   51.57    5.59
   5   4   4   50.10    3.28
   5   4   4   52.37    5.55
   5  -4  -4   53.17    3.76
  -5   4  -4   52.35    4.50
  -5  -4   4   54.18    4.16
  -5  -4  -5   33.16    3.85
   5  -4   5   26.58    4.15
  -5  -4  -5   33.74    5.11
  -5   4   5   37.06    5.57
  -5   4   5   31.97    6.04
  -5  -4  -5   30.08    4.55
   5  -4   5   29.15    3.89
   5   4  -5   33.84    6.47
   5  -4   5   34.01    5.38
   5   4  -5   36.85    5.14
  -5  -4  -5   33.23    5.31
   5  -4  -5   31.74    3.24
   5  -4  -5   34.80    5.85
   5   4   5   28.80    5.50
   5  -4  -5   35.12    4.55
   5   4   5   35.05    4.31
  -5  -4   5   35.44    5.11
  -5  -4   5   37.60    4.38
   5  -4  -5   33.28    4.06
   5   4   5   31.03    3.35
  -5  -4   5   34.53    3.89
  -5   4  -5   36.01    6.44
  -5   4   6   17.59    5.96
  -5  -4  -6   21.89    4.64
   5  -4   6   17.67    5.74
  -5  -4  -6   22.71    5.75
  -5  -4  -6   19.03    5.37
  -5  -4  -6   24.77    4.00
  -5   4   6   23.77    5.70
   5  -4   6   19.14    4.61
   5   4  -6   23.84    6.88
   5   4  -6   12.63    4.69
   5  -4   6   17.29    4.15
   5   4   6   25.30    4.56
   5   4   6   21.10    5.82
  -5  -4   6   20.28    4.63
  -5   4  -6   23.57    6.43
  -5  -4   6   18.99    3.81
   5  -4  -6   23.33    4.31
  -5  -4   6   19.10    4.92
   5   4   6   19.97    3.44
   5  -4  -6   22.14    3.78
   5  -4  -6   21.99    6.00
   5  -4  -6   26.35    3.44
  -5  -4  -7   14.94    4.45
   5   4  -7   15.83    6.64
  -5   4   7   12.78    5.91
   5  -4   7   12.42    4.92
  -5  -4  -7   16.22    5.28
  -5   4   7   13.63    5.97
  -5  -4  -7   14.85    3.60
   5  -4   7   10.71    6.31
  -5  -4  -7   17.70    5.89
   5  -4   7   10.92    4.12
  -5  -4   7   13.15    5.10
   5  -4  -7   15.54    4.07
   5  -4  -7   10.47    5.92
   5  -4  -7   15.32    3.69
   5   4   7   18.34    4.58
   5   4   7   13.27    3.47
  -5   4  -7   20.38    6.54
   5  -4  -7   17.69    3.31
  -5  -4   7    8.61    3.69
   5   4   7    9.86    6.01
  -5  -4   7   10.64    4.61
   5   4  -8    0.99    6.63
   5  -4   8   -9.21    6.62
   5  -4   8   -4.47    5.09
  -5   4   8   10.05    6.52
  -5   4   8   -3.40    6.47
  -5  -4  -8    3.38    5.58
  -5  -4  -8   11.36    4.53
  -5  -4  -8   13.13    3.67
   5  -4   8    6.28    4.52
  -5  -4  -8   13.98    5.28
   5   4   8    8.42    4.72
  -5  -4   8    2.87    5.16
   5   4   8    7.73    3.84
  -5   4  -8    9.31    6.60
   5  -4  -8    4.64    3.12
  -5  -4   8   -3.62    3.79
   5  -4  -8    4.01    6.04
   5  -4  -8    7.49    4.06
   5  -4  -8    8.24    3.77
  -5  -4   8    3.71    6.00
   5   4   8   -3.90    6.62
   6  -4   0    7.86    1.50
   6  -4   0    8.08    1.91
   6   4   0    9.32    1.86
   6   4   0    8.90    1.55
  -6   4   0   12.23    2.98
   6   4   0    7.11    2.27
  -6  -4   0    7.63    2.16
  -6   4   0    9.78    1.96
  -6  -4   0    8.03    1.96
  -6  -4  -1   71.22    3.57
  -6   4   1   70.80    3.47
   6   4  -1   71.26    3.15
  -6  -4  -1   70.46    3.11
   6   4  -1   74.95    4.05
   6  -4   1   68.46    3.39
   6  -4   1   69.56    2.99
  -6  -4  -1   70.13    3.96
  -6   4   1   73.26    4.46
   6   4  -1   65.01    2.80
   6   4   1   69.36    4.49
   6  -4  -1   69.52    3.48
   6   4   1   70.94    3.17
  -6   4  -1   72.82    5.07
   6   4   1   71.51    2.77
  -6   4  -1   68.78    3.46
   6  -4   2    8.43    2.19
   6   4  -2    3.72    1.97
   6   4  -2    7.07    2.42
  -6  -4  -2    9.13    2.29
   6  -4   2    7.75    2.41
  -6  -4  -2    6.41    2.66
  -6  -4  -2    5.04    2.34
  -6   4   2    5.71    2.69
   6   4   2    4.68    2.10
  -6   4  -2    7.65    2.47
   6   4   2    7.47    1.77
   6  -4  -2    9.61    2.21
  -6   4  -2    6.77    3.25
   6   4   2    5.80    2.90
   6   4  -3   37.10    4.77
   6  -4   3   34.29    3.35
  -6  -4  -3   35.41    3.81
  -6   4   3   35.24    4.59
  -6  -4  -3   31.26    4.30
  -6  -4  -3   34.97    3.19
   6   4  -3   32.52    3.39
   6  -4   3   34.91    3.86
   6  -4   3   33.08    4.19
   6   4  -3   30.54    3.78
   6   4   3   32.93    4.53
  -6   4  -3   36.51    3.92
  -6   4  -3   38.40    4.94
   6  -4  -3   33.22    4.50
   6  -4  -3   38.55    2.64
   6   4   3   34.54    3.40
  -6  -4   3   33.25    3.42
   6   4   3   34.45    2.70
   6  -4  -3   35.69    3.41
   6  -4   4   41.63    4.66
  -6   4   4   40.45    5.63
  -6  -4  -4   38.74    4.73
  -6  -4  -4   37.19    4.23
  -6  -4  -4   39.03    4.71
   6  -4   4   39.62    5.42
   6   4  -4   38.15    4.73
  -6  -4  -4   39.21    3.79
   6   4  -4   40.76    6.07
   6  -4   4   36.45    3.95
  -6   4   4   41.61    4.60
   6  -4  -4   41.07    4.08
   6  -4  -4   42.05    5.62
   6   4   4   39.10    3.31
   6   4   4   35.60    4.95
  -6  -4   4   38.40    4.70
  -6   4  -4   43.17    4.20
   6   4   4   43.96    4.31
  -6   4  -4   40.86    4.87
  -6   4  -4   38.44    6.02
   6  -4  -4   37.08    3.69
   6  -4  -4   43.38    3.14
  -6  -4   4   40.92    4.19
  -6   4   5   19.98    5.60
   6  -4   5   18.84    3.69
  -6  -4  -5   19.19    3.67
  -6  -4  -5   23.00    4.90
  -6   4   5   23.24    4.71
   6   4  -5   20.65    6.03
  -6  -4  -5   19.83    5.10
  -6  -4  -5   20.47    4.56
   6   4  -5   20.68    4.68
   6  -4   5   22.16    5.28
   6  -4   5   17.47    4.13
  -6   4  -5   22.12    5.99
   6   4   5   19.25    3.95
  -6  -4   5   18.65    4.68
  -6  -4   5   22.41    4.11
   6  -4  -5   20.08    5.47
   6  -4  -5   25.49    3.16
   6   4   5   19.88    5.12
   6  -4  -5   21.37    3.71
   6  -4  -5   19.93    3.38
  -6   4  -5   21.83    4.46
   6   4   5   17.62    3.11
  -6  -4   5   24.21    3.55
   6   4  -6   18.53    5.21
  -6  -4  -6   15.96    5.30
  -6   4   6   21.59    5.55
  -6  -4  -6   19.08    3.75
  -6  -4  -6   21.26    5.51
   6  -4   6   10.72    3.78
  -6  -4  -6   21.39    4.72
   6  -4   6   17.67    5.99
  -6   4   6   19.51    6.05
   6  -4   6   15.46    4.58
   6   4  -6   22.83    6.50
  -6   4  -6   23.89    6.36
   6  -4  -6   21.11    6.17
  -6  -4   6   17.54    4.45
  -6  -4   6   18.15    4.95
  -6  -4   6   16.23    3.57
   6   4   6   18.62    5.70
   6  -4  -6   21.02    3.72
   6   4   6   24.67    4.55
   6  -4  -6   25.12    3.44
   6  -4  -6   18.65    3.91
  -6   4  -6   17.19    4.60
   6   4   6   19.87    3.32
   6   4  -7   15.85    6.46
  -6  -4  -7   17.90    4.57
  -6  -4  -7   18.41    3.78
  -6   4   7   15.71    6.07
  -6  -4  -7   14.10    5.59
   6  -4   7   11.13    4.10
  -6  -4  -7   13.12    5.29
  -6   4   7    8.26    5.75
   6  -4   7    7.90    4.85
   6  -4   7    5.08    6.42
   6   4   7   18.39    3.54
  -6  -4   7   10.13    4.75
   6  -4  -7   11.46    6.21
   6   4   7   19.28    4.66
  -6   4  -7   14.52    6.20
   6   4   7   11.97    6.19
   6  -4  -7   11.48    3.92
   6  -4  -7   14.86    3.70
   6  -4  -7   18.01    3.28
  -6  -4   7   12.01    5.19
  -6   4  -7   16.73    4.45
  -6  -4   7    9.80    3.68
  -6  -4  -8   10.04    5.96
  -6  -4  -8   15.52    4.51
  -6  -4  -8   12.88    5.32
   6  -4   8    0.96    5.55
   6   4  -8    7.43    6.92
   6  -4   8   -9.09    6.75
  -6   4   8    0.67    6.45
  -6   4   8    8.53    6.21
  -6  -4  -8   14.81    3.64
   6  -4   8   12.03    4.78
   6  -4  -8    5.05    6.15
  -6  -4   8    7.63    3.92
   6   4   8   -3.18    6.67
   6  -4  -8   11.40    3.25
   6   4   8    9.56    4.79
  -6  -4   8    7.92    5.33
   6  -4  -8    5.19    3.95
  -6   4  -8   12.89    6.93
   6  -4  -8   10.37    3.77
  -6  -4   8   13.47    6.46
   6   4   8    9.37    3.42
  -7   4   0   39.21    3.20
   7   4   0   36.24    2.86
   7   4   0   32.28    3.71
  -7  -4   0   36.31    3.11
   7  -4   0   38.68    2.46
   7  -4   0   36.18    3.09
  -7  -4   0   34.12    3.43
   7   4   0   35.01    2.44
   7  -4   0   34.68    2.77
  -7   4   0   36.16    4.33
  -7   4   1   22.54    3.97
  -7   4   1   22.21    2.98
  -7  -4  -1   21.46    2.92
  -7  -4  -1   22.23    2.58
   7  -4   1   23.08    2.75
  -7  -4  -1   21.28    3.03
   7  -4   1   25.59    2.48
   7   4  -1   19.24    2.13
   7   4  -1   21.90    2.68
   7   4  -1   22.26    3.18
   7   4   1   23.56    2.25
  -7   4  -1   23.50    3.15
   7  -4  -1   25.14    3.04
  -7   4  -1   22.74    4.11
   7   4   1   21.40    3.62
   7  -4  -1   25.38    2.14
   7   4   1   21.78    2.56
   7   4  -2   15.39    3.02
   7   4  -2   17.04    2.27
  -7  -4  -2   21.13    2.70
   7  -4   2   18.16    2.53
   7   4  -2   18.50    2.56
   7  -4   2   19.61    2.98
  -7  -4  -2   18.43    3.01
  -7  -4  -2   18.36    3.30
  -7   4   2   18.22    3.60
  -7   4   2   16.32    2.64
   7   4   2   16.88    2.19
   7  -4  -2   19.04    2.61
  -7   4  -2   23.27    3.08
  -7   4  -2   20.81    3.90
   7   4   2   17.06    3.47
   7   4   2   19.19    2.63
   7  -4   3   22.59    3.69
  -7  -4  -3   21.33    3.77
   7   4  -3   22.28    3.47
   7   4  -3   26.66    4.40
  -7   4   3   22.36    4.13
   7   4  -3   21.83    2.95
  -7  -4  -3   20.59    3.35
   7  -4   3   23.42    3.26
   7  -4   3   21.88    3.05
  -7  -4  -3   22.58    3.03
  -7   4  -3   24.35    4.52
   7  -4  -3   23.37    4.18
   7   4   3   24.07    3.06
   7   4   3   18.74    3.86
  -7   4  -3   26.60    3.65
   7   4   3   23.54    2.57
   7  -4  -3   22.44    3.08
   7   4  -4   23.79    5.40
  -7   4   4   25.78    5.17
  -7   4   4   24.35    4.04
   7   4  -4   19.71    4.24
  -7  -4  -4   19.13    4.52
   7  -4   4   22.81    3.41
   7  -4   4   25.23    3.86
  -7  -4  -4   20.44    4.00
   7   4  -4   23.38    3.80
   7  -4   4   22.28    4.58
  -7  -4  -4   19.70    3.38
  -7   4  -4   26.87    3.72
  -7   4  -4   21.42    4.32
  -7   4  -4   27.12    5.58
   7  -4  -4   27.46    5.14
   7  -4  -4   27.15    3.02
  -7  -4   4   23.25    4.27
   7   4   4   29.51    5.04
   7   4   4   24.94    3.01
   7  -4  -4   25.01    3.60
   7   4   4   27.90    3.77
  -7  -4   4   21.23    3.65
  -7  -4  -5   13.98    4.50
   7   4  -5   15.57    4.70
  -7  -4  -5   13.81    4.57
   7   4  -5    7.80    5.67
   7  -4   5   13.67    4.17
   7  -4   5   13.25    5.24
  -7  -4  -5   13.42    3.49
  -7   4   5   19.24    4.69
   7  -4   5    9.47    3.59
  -7   4   5   14.43    5.37
  -7  -4  -5   22.54    5.36
   7  -4  -5   11.63    3.63
   7  -4  -5   14.47    3.09
  -7  -4   5   13.63    3.88
  -7   4  -5   16.55    5.83
  -7   4  -5   19.88    4.81
  -7   4  -5   13.23    4.09
   7   4   5   12.21    3.19
   7  -4  -5   13.07    5.21
   7   4   5    9.40    4.02
  -7  -4   5   18.23    4.67
   7   4   5    8.63    5.10
  -7  -4   5   11.43    3.23
   7  -4   6   14.03    5.88
  -7  -4  -6   17.85    3.73
  -7   4   6   20.71    5.27
   7  -4   6    9.12    4.24
  -7  -4  -6   26.41    5.84
   7   4  -6   12.45    4.95
  -7  -4  -6   17.09    4.77
   7  -4   6   16.94    3.99
  -7  -4  -6   22.93    5.29
  -7   4   6   20.74    6.09
   7   4  -6   16.20    6.19
  -7  -4   6   14.92    3.41
   7   4   6   16.60    4.25
   7  -4  -6   23.05    6.09
   7  -4  -6   19.43    3.58
  -7   4  -6   18.47    4.89
   7  -4  -6   18.18    3.14
  -7  -4   6   21.59    4.50
   7   4   6   17.14    5.72
   7   4   6   21.40    3.53
   7  -4  -6   17.62    3.85
  -7  -4   6   13.81    4.82
  -7   4  -6   19.95    5.99
  -7  -4  -7   19.37    4.87
  -7   4   7    8.84    5.90
  -7  -4  -7   19.56    5.84
   7   4  -7    4.18    6.29
  -7  -4  -7   11.08    3.76
  -7   4   7    4.21    5.59
  -7  -4  -7    9.86    5.44
   7  -4   7    4.30    6.61
   7  -4   7   17.42    4.41
   7  -4   7    9.01    4.89
  -7  -4   7   14.79    5.59
   7   4   7   12.69    3.55
  -7   4  -7   10.79    6.04
   7  -4  -7   15.09    3.38
   7   4   7   10.03    6.23
   7   4   7   14.72    4.66
  -7   4  -7   10.36    4.64
   7  -4  -7   10.13    3.80
   7  -4  -7    9.40    6.13
   7  -4  -7   14.73    3.66
  -7  -4   7    7.65    4.80
  -7  -4   7   11.54    3.72
  -7  -4  -8   10.22    4.44
   7  -4   8    5.62    4.27
  -7   4   8   -0.37    6.46
   7  -4   8    5.70    5.59
  -7   4   8   11.00    6.31
  -7  -4  -8   13.43    5.65
  -7  -4  -8   11.59    3.67
  -7  -4  -8    5.29    5.65
   7   4  -8    5.51    6.63
   7  -4  -8    8.13    6.73
   7  -4  -8    7.62    3.73
   7  -4  -8    1.87    3.73
   7  -4  -8    8.60    3.32
   7   4   8    1.30    6.68
  -7  -4   8    1.45    3.81
  -7  -4   8   -4.61    4.76
   7   4   8    8.91    3.59
  -7  -4   8    4.17    6.18
   7   4   8   11.19    4.96
  -7   4  -8   11.10    6.55
   8   4   0    3.48    1.78
   8   4   0    3.97    2.74
  -8   4   0    4.50    2.22
   8  -4   0    4.03    1.87
   8  -4   0    5.23    2.08
  -8  -4   0    2.64    2.39
   8   4   0    2.44    2.01
  -8   4   0    3.32    3.51
  -8  -4   0    3.03    2.57
  -8   4   1    8.95    3.28
   8  -4   1    5.54    2.04
  -8  -4  -1    9.83    2.37
   8   4  -1    7.78    2.02
   8  -4   1    9.95    2.54
  -8   4   1    5.61    2.19
   8   4  -1    7.66    2.13
  -8  -4  -1    7.44    2.64
   8   4  -1    9.06    2.88
  -8  -4  -1    8.90    2.85
   8   4   1    6.87    2.42
   8  -4  -1    7.08    1.88
   8   4   1    6.93    1.97
   8  -4  -1    8.68    2.32
  -8   4  -1    7.42    2.50
   8   4   1    8.00    3.45
  -8   4  -1    8.36    3.82
   8   4  -2   16.35    2.74
   8  -4   2   18.39    2.57
  -8  -4  -2   18.18    3.62
   8   4  -2   17.59    2.36
  -8   4   2   23.43    3.93
  -8  -4  -2   20.60    2.99
  -8  -4  -2   17.66    3.22
   8  -4   2   19.16    3.08
   8   4  -2   18.90    3.27
  -8   4   2   17.62    2.80
  -8   4  -2   19.16    4.17
  -8   4  -2   17.50    3.18
   8   4   2   17.91    3.67
   8  -4  -2   16.51    2.77
   8   4   2   19.23    2.46
   8   4   2   15.35    2.73
   8  -4   3   40.42    3.88
   8  -4   3   43.58    4.53
  -8  -4  -3   43.73    5.25
  -8   4   3   40.96    4.38
   8   4  -3   38.22    5.16
   8  -4   3   41.60    4.85
   8   4  -3   38.45    3.92
  -8  -4  -3   44.63    3.85
  -8  -4  -3   45.02    4.63
  -8   4   3   41.19    5.28
   8   4  -3   38.79    4.58
   8   4   3   39.89    3.37
  -8   4  -3   37.87    4.79
   8   4   3   39.12    5.61
  -8   4  -3   41.20    5.70
   8  -4  -3   47.91    4.32
   8   4   3   44.49    4.15
  -8   4   4   11.59    4.79
  -8  -4  -4   15.89    4.20
   8  -4   4   11.71    3.42
   8   4  -4   13.91    4.20
  -8  -4  -4   16.61    4.81
   8   4  -4   14.15    4.98
   8  -4   4   17.62    4.67
   8  -4   4   16.21    3.77
  -8  -4  -4   14.24    3.46
   8   4  -4   19.26    3.96
  -8  -4   4   14.97    3.60
   8   4   4   14.84    4.63
  -8   4  -4   15.34    4.34
   8   4   4   15.73    2.99
   8   4   4   15.05    3.63
   8  -4  -4   15.77    3.51
  -8   4  -4   14.95    5.26
  -8   4  -4   13.51    3.71
   8  -4  -4   16.35    4.90
  -8   4   5   12.81    5.71
   8  -4   5    9.76    3.77
  -8  -4  -5    6.41    4.47
  -8   4   5    9.80    4.51
  -8  -4  -5   18.63    5.52
  -8  -4  -5    7.84    3.72
   8   4  -5   10.67    4.78
   8  -4   5   12.55    5.61
   8  -4   5   13.97    4.33
   8   4  -5   16.05    5.97
   8  -4  -5   10.84    5.46
  -8  -4   5    7.46    4.41
   8   4   5    8.79    3.19
  -8   4  -5   16.95    5.09
  -8  -4   5    9.11    4.15
   8  -4  -5   13.83    3.75
  -8   4  -5   11.80    4.26
   8   4   5   13.49    5.64
  -8  -4   5    9.62    3.28
  -8   4  -5   14.25    5.78
   8   4   5   12.35    4.07
   8  -4   6   13.38    3.77
  -8   4   6   15.70    5.10
   8   4  -6   16.53    6.39
  -8   4   6    9.21    5.46
  -8  -4  -6   24.60    5.93
   8  -4   6   10.36    4.29
  -8  -4  -6   15.30    4.85
   8   4  -6   11.83    4.96
  -8  -4  -6   13.95    4.80
   8  -4   6   13.08    6.02
  -8  -4  -6   16.58    3.77
   8   4   6   20.63    4.44
   8   4   6   12.32    5.69
  -8  -4   6   17.94    5.13
  -8   4  -6   18.85    5.89
  -8  -4   6   13.86    3.47
   8   4   6   15.17    3.41
  -8   4  -6   19.13    5.00
  -8  -4   6   15.53    4.51
   8  -4  -6   18.44    6.01
   8  -4  -6   17.16    3.24
   8  -4  -6   12.73    3.73
  -8   4   7   11.62    6.25
   8  -4   7    0.90    3.89
   8  -4   7   -1.14    6.52
   8   4  -7   14.76    6.85
   8   4  -7   10.26    5.85
  -8  -4  -7   18.14    6.19
  -8  -4  -7   12.84    4.92
   8  -4   7    7.65    4.73
  -8   4   7    8.04    5.84
  -8  -4  -7   10.28    5.44
  -8  -4  -7   14.04    3.81
  -8  -4   7   10.18    5.43
  -8  -4   7    7.39    4.67
  -8   4  -7   14.66    4.97
   8   4   7   11.47    3.59
   8  -4  -7   15.41    3.42
  -8  -4   7    4.11    3.44
   8  -4  -7    9.33    6.22
   8  -4  -7   11.76    3.95
  -8   4  -7    7.65    5.92
   8   4   7    8.65    6.47
   8   4   7    5.04    4.53
   8   4  -8    8.18    6.98
  -8  -4  -8    8.44    5.80
  -8   4   8    2.46    6.50
  -8  -4  -8   14.79    5.82
   8  -4   8    6.02    5.31
   8  -4   8   -0.30    4.09
  -8  -4  -8   15.24    4.97
  -8  -4  -8   17.16    4.07
   8  -4   8  -14.48    6.73
  -8   4   8    5.92    6.39
   8   4   8   -5.45    6.62
   8  -4  -8   12.18    4.37
  -8   4  -8   12.02    6.58
   8  -4  -8   -0.16    6.19
  -8  -4   8   -3.19    3.60
  -8  -4   8    1.91    5.20
   8   4   8    4.76    4.92
  -8  -4   8    4.64    6.00
   8   4   8   11.52    3.80
   8  -4  -8   11.56    4.33
   9   4   0   17.80    3.44
  -9   4   0   31.57    5.27
   9  -4   0   26.69    3.23
   9  -4   0   26.45    2.79
  -9  -4   0   23.53    3.34
   9   4   0   21.65    2.75
   9   4   0   24.21    2.73
  -9  -4   0   24.86    3.12
  -9   4   0   18.77    2.88
   9   4  -1    2.62    2.21
   9  -4   1    5.73    2.21
  -9   4   1    5.78    3.55
  -9  -4  -1    2.37    3.04
   9   4  -1    2.79    2.89
  -9   4   1    4.87    2.53
   9   4  -1    4.78    2.09
  -9  -4  -1    6.87    2.94
   9  -4   1    3.85    2.70
  -9   4  -1    5.81    3.95
  -9   4  -1    0.67    2.55
   9   4   1    1.99    3.49
   9  -4  -1    3.29    2.47
   9  -4  -1    3.62    1.98
   9   4   1   -0.59    2.34
  -9  -4   1    4.25    2.69
   9   4   1    3.35    2.01
  -9  -4  -2    6.18    3.52
  -9   4   2    9.45    3.65
   9  -4   2    8.67    2.72
   9  -4   2    7.09    3.14
   9   4  -2    7.54    2.39
   9   4  -2    4.83    2.54
  -9   4   2    8.22    2.89
   9   4  -2    6.07    3.09
  -9  -4  -2    9.45    3.32
  -9  -4  -2    7.31    2.92
   9   4   2    6.22    2.32
   9  -4  -2    8.22    2.04
   9  -4  -2    6.44    2.81
  -9   4  -2    8.29    3.20
   9   4   2    4.37    2.63
   9   4   2    4.58    3.76
   9  -4   3   12.55    3.80
  -9   4   3   14.79    4.43
  -9   4   3   10.56    3.41
   9   4  -3   11.77    3.38
  -9  -4  -3   12.20    3.36
  -9  -4  -3   12.02    3.93
  -9  -4  -3   10.60    4.32
   9   4  -3   10.82    3.77
   9  -4   3   10.09    3.06
  -9   4  -3   12.37    4.65
   9  -4  -3   10.30    3.22
   9   4   3   11.16    3.28
   9   4   3   11.27    4.54
   9   4   3   10.73    2.86
  -9   4  -3   10.28    3.89
  -9   4   4    1.85    3.69
   9  -4   4    9.50    4.67
   9  -4   4    7.35    4.09
   9  -4   4    9.46    3.42
   9   4  -4    6.53    4.86
  -9  -4  -4    4.62    4.17
  -9  -4  -4   10.81    3.64
   9   4  -4    5.14    3.86
   9   4  -4    2.92    4.06
  -9   4   4   10.28    4.79
  -9  -4  -4    6.16    4.83
   9  -4  -4    9.19    3.61
  -9  -4   4    9.20    3.59
  -9   4  -4    6.87    3.77
  -9   4  -4    4.13    4.98
   9   4   4    1.93    3.59
  -9   4  -4    6.01    4.39
   9   4   4    9.46    4.95
   9   4   4    4.30    2.91
   9  -4  -4    5.80    4.81
  -9  -4  -5   17.58    3.94
   9  -4   5   26.32    4.20
  -9   4   5   18.17    5.99
   9   4  -5   25.52    6.31
   9  -4   5   22.45    4.43
  -9   4   5   21.35    4.95
  -9  -4  -5   23.14    5.95
   9   4  -5   23.62    5.29
   9  -4   5   22.80    5.76
  -9  -4  -5   27.72    5.19
  -9   4  -5   29.77    6.31
   9   4   5   22.54    5.86
  -9   4  -5   20.34    4.63
   9  -4  -5   21.10    5.98
   9  -4  -5   21.63    4.08
  -9  -4   5   21.45    5.14
  -9   4  -5   29.75    5.48
   9   4   5   23.80    3.52
  -9  -4   5   21.41    4.41
   9   4   5   24.71    4.32
  -9  -4  -6   12.34    3.72
  -9  -4  -6   15.77    5.07
   9   4  -6   15.64    5.35
  -9  -4  -6   14.83    5.87
   9   4  -6   12.54    6.25
   9  -4   6   11.46    4.30
  -9   4   6   12.53    4.92
   9  -4   6    6.91    5.75
  -9  -4  -6    8.85    4.54
  -9   4   6   13.90    5.73
   9  -4   6    7.51    3.78
  -9   4  -6   11.30    4.36
  -9   4  -6   12.39    5.50
   9   4   6   14.54    3.33
   9   4   6   16.32    4.20
   9  -4  -6   12.45    3.87
  -9   4  -6   11.22    5.09
   9  -4  -6    8.00    5.64
  -9  -4   6    9.00    3.28
   9   4   6    6.12    5.74
  -9  -4   6   10.82    4.39
  -9  -4   6   14.51    5.30
  -9   4   7    1.88    6.01
  -9  -4  -7    0.04    3.44
   9   4  -7    9.04    6.79
  -9   4   7   -2.63    5.31
   9  -4   7    1.83    6.71
  -9  -4  -7    4.48    5.69
   9   4  -7   11.18    6.00
   9  -4   7   11.06    4.22
  -9  -4  -7   15.82    6.14
   9  -4   7    6.51    4.91
  -9  -4  -7    8.98    4.96
  -9   4  -7    5.11    5.10
  -9  -4   7    8.15    3.53
   9   4   7   -0.01    6.43
  -9   4  -7   10.00    5.87
   9  -4  -7    3.68    3.81
   9  -4  -7    5.71    6.18
   9   4   7   11.55    3.51
  -9  -4   7    7.35    4.68
   9   4   7   12.86    4.73
  -9  -4   7    7.45    5.48
  -9   4   8   -3.16    6.29
   9   4  -8    7.19    6.91
  -9  -4  -8   14.66    6.19
   9  -4   8    5.93    4.43
  -9  -4  -8   12.15    4.90
   9  -4   8  -10.11    7.07
   9  -4   8   11.28    5.51
  -9   4   8    3.02    6.24
  -9  -4  -8   10.02    3.88
   9  -4  -8    3.46    6.67
  -9  -4   8   -0.38    4.99
  -9  -4   8    5.28    4.02
   9   4   8   -8.86    6.87
  -9   4  -8   12.87    6.59
   9   4   8   11.60    3.89
  -9  -4   8    5.73    5.98
   9   4   8    6.78    4.84
   9  -4  -8    3.63    3.89
  10   4   0   11.21    2.48
 -10  -4   0   15.34    3.22
  10  -4   0   17.66    2.92
 -10  -4   0   13.08    3.47
 -10   4   0   10.38    2.89
  10   4   0   12.74    3.69
  10  -4   0   19.73    2.73
  10   4   0   13.42    2.86
  10   4  -1   14.41    2.61
 -10  -4  -1   12.31    3.46
  10   4  -1   13.92    3.79
 -10   4   1   14.23    3.05
  10  -4   1   15.18    3.18
 -10  -4  -1   17.02    3.94
 -10   4   1   12.96    4.34
  10  -4   1   10.93    2.66
  10   4  -1   11.67    2.73
  10   4   1   16.11    2.71
  10  -4  -1   11.99    2.50
 -10  -4   1   14.85    3.38
  10   4   1   13.18    2.96
  10  -4  -1   14.18    2.79
  10   4   1   12.69    4.37
 -10   4  -1   11.68    3.20
  10  -4  -1   12.03    3.14
  10  -4   2   22.15    3.21
  10   4  -2   23.09    3.52
  10  -4   2   26.13    3.96
 -10  -4  -2   22.86    4.59
 -10  -4  -2   19.88    4.07
  10   4  -2   23.56    3.13
  10   4  -2   21.67    4.16
 -10   4   2   23.44    3.44
 -10   4   2   27.08    4.73
 -10  -4  -2   19.11    3.56
 -10   4  -2   18.75    3.82
  10  -4  -2   19.91    2.66
  10   4   2   16.95    2.89
  10   4   2   25.74    3.55
  10  -4  -2   23.91    3.61
  10   4   2   22.74    4.85
 -10  -4  -3   15.15    3.50
 -10  -4  -3   14.70    4.42
 -10  -4  -3   19.05    4.97
 -10   4   3   16.45    4.75
  10  -4   3   22.11    4.32
  10  -4   3   12.72    3.48
 -10   4   3   19.21    3.99
  10   4  -3   16.15    3.72
  10   4  -3   16.78    4.38
  10   4   3   17.31    3.67
  10  -4  -3   15.56    3.82
  10   4   3   16.62    3.08
 -10   4  -3   18.36    4.96
  10   4   3   17.61    5.07
 -10   4  -3   12.90    4.24
 -10   4   4   11.10    5.35
 -10  -4  -4   11.64    5.43
  10   4  -4   13.60    4.44
  10   4  -4   14.42    4.79
 -10  -4  -4   14.60    4.91
  10  -4   4    8.99    3.71
  10   4  -4   17.82    5.57
 -10  -4  -4   10.28    3.77
  10  -4   4   11.03    4.53
 -10   4   4   13.96    4.18
  10  -4   4   11.78    5.14
  10  -4  -4   16.68    4.08
  10   4   4   15.61    5.63
 -10   4  -4   10.09    4.34
 -10   4  -4   21.28    5.68
  10   4   4   15.57    4.07
  10  -4  -4   13.39    5.53
 -10   4  -4   16.59    5.16
  10   4   4   10.34    3.32
 -10  -4  -5    9.80    3.66
  10  -4   5    3.10    4.96
 -10  -4  -5   14.46    5.00
  10  -4   5   11.25    4.45
  10  -4   5    7.79    3.51
 -10   4   5   11.17    5.35
  10   4  -5   18.27    5.00
 -10   4   5   15.44    4.41
 -10  -4  -5    8.85    5.61
  10   4  -5   11.18    5.56
  10   4   5   15.18    4.12
  10   4   5   12.83    3.36
  10   4   5   10.46    5.58
 -10  -4   5   12.37    4.08
  10  -4  -5   11.47    5.48
  10  -4  -5   10.24    3.83
 -10   4  -5   12.74    5.33
 -10   4  -5   10.29    4.34
 -10   4  -5   10.79    5.01
 -10  -4   5   10.85    4.52
  10   4  -6   11.04    5.45
 -10  -4  -6   14.71    6.33
 -10  -4  -6    9.92    5.25
  10   4  -6   12.91    6.27
  10  -4   6   -0.78    5.76
  10  -4   6   11.26    4.52
  10  -4   6    6.23    3.83
 -10   4   6    8.72    5.01
 -10  -4  -6    7.82    3.78
 -10   4   6    7.40    5.70
  10  -4  -6    8.04    3.99
 -10  -4   6    6.55    4.35
  10   4   6   10.48    6.30
 -10   4  -6   10.71    5.47
 -10  -4   6   11.25    3.34
  10   4   6   11.89    3.44
  10   4   6   10.43    4.25
 -10   4  -6    4.68    4.51
 -10  -4   6   13.22    5.39
  10  -4  -6    4.89    5.65
 -10   4  -6    7.27    5.21
  10  -4   7   11.19    4.99
  10  -4   7   10.98    4.27
 -10  -4  -7   10.13    5.41
  10  -4   7   -7.32    5.99
 -10  -4  -7   16.24    6.50
  10   4  -7   17.92    7.02
 -10   4   7    0.81    5.47
 -10  -4  -7    8.99    3.98
 -10   4   7    5.20    6.09
  10   4  -7   10.65    6.12
 -10  -4   7    9.99    4.71
 -10  -4   7    4.47    3.68
 -10   4  -7    7.06    5.51
  10   4   7   -1.89    6.47
  10   4   7    7.60    4.50
 -10  -4   7    8.02    5.83
  10  -4  -7    6.32    4.15
  10   4   7   14.98    3.67
 -10   4  -7    9.01    5.88
  10  -4  -7    3.20    6.29
 -10   4  -7    9.93    4.47
 -11  -4   0   45.32    4.74
 -11   4   0   42.21    4.75
  11   4   0   39.14    3.60
 -11  -4   0   39.57    5.19
  11   4   0   47.05    5.63
  11   4   0   40.02    4.18
  11  -4   0   46.98    3.74
  11  -4   0   42.46    4.15
  11   4  -1   18.48    3.08
  11   4  -1   17.39    3.34
 -11  -4  -1   22.27    4.10
  11   4  -1   20.06    4.56
 -11   4   1   13.78    3.43
  11  -4   1   17.70    3.20
 -11  -4  -1   18.86    4.54
 -11   4   1   20.24    5.10
  11  -4   1   21.14    3.69
 -11  -4   1   18.46    3.94
  11   4   1   19.88    3.06
  11   4   1   18.75    4.79
 -11   4  -1   21.55    3.87
  11   4   1   16.60    3.50
  11  -4  -1   18.42    3.24
  11  -4  -1   20.54    2.94
  11  -4   2   26.14    3.59
  11   4  -2   22.13    3.35
 -11  -4  -2   18.51    3.72
 -11  -4  -2   23.12    5.05
  11   4  -2   25.15    3.90
 -11  -4  -2   18.44    4.52
  11   4  -2   21.52    4.60
  11  -4   2   21.41    4.10
 -11   4   2   17.56    3.85
 -11   4   2   19.56    4.82
  11  -4  -2   19.39    2.90
  11   4   2   20.81    3.29
 -11   4  -2   19.95    4.17
  11  -4  -2   23.96    3.44
  11   4   2   20.15    3.75
  11   4   2   23.15    5.43
  11  -4  -2   18.68    3.88
  11  -4   3   14.74    3.73
 -11   4   3   21.65    5.38
  11   4  -3   21.53    4.24
 -11  -4  -3   23.53    5.09
  11  -4   3   21.58    4.49
 -11  -4  -3   16.70    5.34
 -11   4   3   26.60    4.50
 -11  -4  -3   22.95    4.10
  11   4  -3   21.34    4.71
  11  -4  -3   26.00    3.20
  11   4   3   19.89    5.49
  11  -4  -3   21.70    4.24
 -11   4  -3   22.64    4.80
  11   4   3   18.79    3.37
  11   4   3   22.94    3.93
 -11  -4  -4   15.46    5.75
  11  -4   4   17.11    5.08
 -11  -4  -4   18.04    4.05
  11   4  -4   23.94    4.55
 -11   4   4   21.90    4.64
  11  -4   4   15.10    3.90
 -11   4   4   19.65    5.54
 -11  -4  -4   13.61    4.87
  11   4  -4   21.80    5.15
  11  -4   4   20.80    4.85
  11   4   4   18.23    3.55
  11   4   4   18.79    5.92
 -11   4  -4   20.70    5.43
  11  -4  -4   18.09    4.26
  11   4   4   13.36    4.01
 -11   4  -4   18.64    5.41
 -11   4  -4   26.50    4.94
 -11   4   5    9.76    5.33
  11   4  -5    9.10    4.49
 -11  -4  -5    9.45    5.11
  11   4  -5    2.82    5.15
 -11  -4  -5   10.78    6.02
  11  -4   5   12.73    3.76
 -11   4   5    9.41    4.15
  11   4  -5    4.79    4.70
  11  -4   5    5.28    5.12
  11  -4   5    8.15    4.41
 -11  -4  -5    7.90    3.55
 -11  -4   5    8.63    3.75
  11  -4  -5   12.99    5.61
  11   4   5   11.54    3.30
 -11  -4   5   11.42    4.77
  11   4   5   10.51    5.71
 -11   4  -5    2.51    4.42
  11   4   5    5.50    3.74
 -11   4  -5   13.24    5.31
 -11   4  -5    5.71    5.05
  11  -4  -5    7.68    3.77
  11  -4   6    9.38    5.12
  11   4  -6    5.54    5.94
  11   4  -6    3.43    5.33
 -11   4   6    7.48    5.62
  11  -4   6    3.04    3.84
 -11   4   6    8.93    4.50
 -11  -4  -6    8.17    5.41
 -11   4   6    3.31    4.90
 -11  -4  -6    5.91    3.91
 -11  -4  -6   12.06    6.45
  11  -4   6   -2.76    5.74
 -11   4  -6    5.81    5.38
  11  -4  -6    5.79    3.93
  11   4   6   -0.28    6.10
 -11  -4   6    8.08    4.55
  11   4   6   -0.99    4.07
 -11   4  -6   13.26    5.56
 -11  -4   6    5.89    5.35
 -11   4  -6    2.48    4.72
 -11  -4   6    5.96    3.02
  11  -4  -6    6.28    6.00
  11   4   6    8.89    3.55
 -11   4   7    3.42    5.91
 -11   4   7    4.76    4.69
 -11  -4  -7    4.52    5.24
 -11   4   7   -1.61    5.45
 -11  -4  -7   12.40    6.61
  11  -4   7    1.82    3.96
  11  -4   7   -7.48    6.09
  11   4  -7   11.94    6.09
  11   4  -7    1.47    6.11
 -11  -4  -7    5.75    3.91
  11  -4   7    1.97    5.13
 -11   4  -7    9.59    5.68
 -11  -4   7    1.51    5.47
  11  -4  -7    3.11    4.12
  11   4   7    2.92    4.30
  11   4   7   -2.08    6.56
  11  -4  -7    4.40    6.29
  11   4   7    6.39    3.57
 -11   4  -7    3.86    4.31
 -11  -4   7    1.70    3.28
 -11  -4   7   -0.83    4.44
 -11   4  -7    5.94    5.51
 -12  -4   0   10.35    4.08
  12   4   0   15.72    3.60
 -12  -4   0   17.55    4.47
 -12   4   0    9.54    3.67
  12   4   0   13.97    3.15
  12  -4   0   13.04    3.08
  12   4   0    8.77    4.53
  12  -4   0   15.29    3.53
  12  -4   1   17.06    3.41
 -12   4   1   10.99    3.69
 -12  -4  -1   21.66    5.10
  12   4  -1   16.12    4.92
 -12  -4  -1   17.12    4.43
  12  -4   1   17.20    3.91
  12   4  -1   14.94    3.52
  12   4  -1   17.04    3.25
 -12  -4   1   15.76    4.26
 -12   4  -1   15.43    4.07
  12   4   1   11.05    4.77
  12   4   1   13.63    3.76
  12  -4  -1   16.50    3.13
  12   4   1   16.74    3.30
  12  -4  -1   16.02    3.39
 -12   4   2   24.87    5.45
 -12   4   2   28.33    4.47
  12   4  -2   26.81    5.24
 -12  -4  -2   26.50    5.62
  12   4  -2   30.17    4.33
 -12  -4  -2   28.78    5.11
  12   4  -2   22.60    3.64
 -12  -4  -2   24.47    4.13
  12  -4   2   23.19    4.41
  12  -4   2   23.61    3.71
  12  -4  -2   20.77    3.25
  12   4   2   26.83    5.87
  12   4   2   27.10    4.17
  12  -4  -2   21.82    4.45
 -12  -4   2   30.38    4.36
 -12   4  -2   21.44    4.58
  12   4   2   23.29    3.65
  12  -4   3   24.40    4.70
  12   4  -3   21.17    4.52
 -12  -4  -3   19.33    5.71
  12   4  -3   19.96    3.84
 -12  -4  -3   21.34    4.29
  12   4  -3   26.05    5.28
 -12  -4  -3   23.12    5.55
  12  -4   3   22.28    3.86
 -12   4   3   17.87    5.24
 -12   4   3   23.79    4.56
  12   4   3   17.12    5.70
  12  -4  -3   17.50    4.37
  12   4   3   15.70    3.92
  12  -4  -3   19.55    3.35
 -12   4  -3   19.34    4.96
  12   4   3   23.67    3.74
 -12   4   4   13.52    4.24
 -12  -4  -4    9.22    5.83
  12  -4   4   17.71    4.58
  12  -4   4    8.36    4.75
  12   4  -4   12.40    4.41
 -12  -4  -4    7.20    3.72
  12   4  -4   13.37    4.75
  12  -4   4   12.87    3.73
 -12   4   4    7.38    4.92
 -12  -4  -4   12.88    5.12
  12   4   4   13.99    3.34
 -12   4  -4   13.88    5.14
  12   4   4   16.35    3.94
 -12   4  -4    7.25    4.73
  12  -4  -4   17.13    4.34
  12   4   4   13.25    5.71
 -12  -4  -5   18.05    6.45
  12  -4   5    2.15    5.31
  12  -4   5    8.61    4.76
 -12   4   5    7.88    4.29
  12   4  -5   11.51    4.87
 -12   4   5   10.01    5.46
  12   4  -5   11.42    5.64
  12   4  -5   14.58    5.32
 -12  -4  -5   10.09    4.09
  12  -4   5    6.87    3.87
 -12  -4  -5   14.06    5.77
  12  -4  -5    5.25    3.85
  12   4   5    4.57    5.95
 -12  -4   5   10.36    5.00
 -12   4  -5    4.20    4.90
 -12   4  -5    7.66    4.77
  12   4   5   13.57    4.05
 -12  -4   5    9.29    3.95
 -12   4  -5    5.87    5.45
  12   4   5    9.17    3.49
  12  -4   6    4.62    6.09
  12  -4   6    4.54    4.94
  12   4  -6    7.88    5.88
 -12   4   6    9.59    5.96
  12  -4   6   11.31    4.07
 -12  -4  -6   14.80    5.97
 -12  -4  -6   10.33    4.09
 -12   4   6   14.87    4.73
 -12  -4  -6   19.79    7.00
  12   4  -6    8.27    5.72
 -12   4  -6   10.48    6.03
  12  -4  -6    7.00    6.22
 -12   4  -6    6.23    5.67
  12   4   6    5.33    6.55
  12   4   6    7.42    4.26
  12   4   6    6.27    3.50
 -12  -4   6    6.10    5.55
 -12  -4   6    3.56    4.44
 -12   4  -6    6.44    5.37
  12  -4  -6    8.37    4.32
  12   4  -7    9.70    6.34
  12  -4   7    5.85    4.15
 -12  -4  -7   15.07    4.47
  12  -4   7   -3.70    6.68
 -12  -4  -7    6.26    5.76
  12   4  -7    5.93    5.91
  12  -4   7    2.65    5.44
 -12   4   7    8.76    4.92
 -12  -4  -7    6.45    6.61
 -12   4   7    1.46    6.12
 -12  -4   7    4.50    3.65
  12   4   7   -4.64    6.71
 -12  -4   7   -0.22    5.48
  12   4   7    6.31    3.80
  12  -4  -7   -5.34    6.13
 -12   4  -7   12.20    4.77
 -12  -4   7    2.60    4.98
  12  -4  -7    0.98    4.14
  12   4   7    5.30    4.56
 -12   4  -7    0.31    5.74
  13   4   0    8.74    3.84
  13  -4   0   11.31    3.42
 -13  -4   0   12.36    4.42
  13  -4   0   15.45    3.93
 -13   4   0   12.78    4.00
 -13  -4   0   13.08    4.83
  13   4   0   13.80    5.04
  13   4   0    9.17    3.29
  13  -4   1   49.53    5.33
  13   4  -1   36.32    4.09
 -13   4   1   47.04    5.61
  13   4  -1   43.94    5.17
 -13  -4  -1   46.60    6.15
 -13  -4  -1   44.79    5.57
  13  -4   1   45.31    4.48
  13   4  -1   45.89    6.34
 -13   4  -1   49.69    5.91
  13  -4  -1   42.11    4.06
  13   4   1   45.23    4.33
  13   4   1   48.92    5.16
 -13  -4   1   47.98    5.94
  13   4   1   53.52    7.12
  13  -4  -1   49.50    4.73
 -13   4   2   26.61    4.57
  13  -4   2   25.77    4.58
 -13  -4  -2   28.79    5.41
  13   4  -2   24.03    3.89
  13   4  -2   29.79    4.70
  13   4  -2   23.74    5.29
  13  -4   2   26.94    4.03
 -13  -4  -2   26.57    5.94
 -13  -4  -2   18.03    4.31
  13   4   2   30.58    6.35
 -13   4  -2   25.34    4.91
  13   4   2   24.89    4.55
  13  -4  -2   24.41    3.50
  13   4   2   23.02    3.86
 -13  -4   2   26.41    4.70
  13   4  -3   21.73    5.19
 -13   4   3   20.55    4.58
 -13  -4  -3   19.36    5.53
 -13  -4  -3   17.07    4.18
 -13   4   3   11.04    5.08
  13   4  -3   18.77    3.87
  13  -4   3   10.92    4.31
  13  -4   3   11.14    3.56
  13   4  -3   20.73    4.43
 -13  -4  -3   18.11    5.90
  13   4   3   18.24    3.59
 -13   4  -3   14.63    4.80
  13   4   3   20.88    4.33
  13  -4  -3   18.06    3.21
  13  -4  -3   16.08    4.37
  13   4   3   12.72    5.63
 -13  -4  -4   11.19    4.01
  13   4  -4   17.39    4.72
 -13   4   4    9.00    5.15
 -13  -4  -4   19.63    6.22
 -13  -4  -4   23.60    6.21
 -13   4   4    9.87    4.26
  13   4  -4   15.40    5.07
  13  -4   4   10.72    4.42
  13  -4   4   11.05    3.58
  13  -4   4   10.61    5.17
 -13   4  -4   16.62    5.29
  13   4   4   16.88    4.00
 -13   4  -4   16.71    5.30
  13  -4  -4   12.77    4.32
  13   4   4   13.68    3.44
  13   4   4   19.77    5.86
 -13  -4  -5   14.08    6.75
  13  -4   5    6.41    3.79
 -13  -4  -5   17.31    6.17
 -13   4   5    7.40    5.40
  13  -4   5    9.14    5.03
  13   4  -5   13.35    5.15
 -13  -4  -5    8.32    4.18
 -13   4   5   10.24    4.54
  13  -4   5    2.54    5.45
  13   4  -5   17.95    5.66
 -13   4  -5   13.79    5.91
  13  -4  -5   10.78    4.47
  13   4   5    8.15    4.05
  13   4   5    3.36    6.05
 -13  -4   5    5.74    4.14
 -13  -4   5    6.73    4.92
  13   4   5   11.21    3.71
 -13   4  -5    6.48    5.30
  13  -4   6    4.23    3.94
 -13  -4  -6    9.24    6.24
 -13   4   6    1.44    5.67
  13  -4   6   -1.09    5.93
 -13  -4  -6    8.40    4.16
  13  -4   6    9.51    5.42
 -13  -4  -6    6.28    6.86
  13   4  -6    5.46    5.79
 -13   4   6    3.33    4.48
  13   4   6    6.91    3.68
 -13  -4   6   -0.30    4.35
  13   4   6   -4.94    6.39
  13  -4  -6    2.94    4.24
 -13   4  -6    0.08    5.73
 -13   4  -6    8.74    5.71
  13   4   6    3.35    4.13
 -13  -4   6    7.05    5.59
  14   4   0   17.98    4.30
 -14  -4   0   20.94    5.25
 -14   4   0   14.84    4.48
  14   4   0   22.67    3.84
  14  -4   0   21.33    4.04
  14  -4   0   19.97    3.75
  14   4   0   26.74    5.42
 -14  -4   0   20.60    4.89
 -14  -4  -1   25.70    5.70
  14  -4   1   22.02    4.23
  14   4  -1   18.40    4.34
  14   4  -1   21.19    3.83
 -14  -4  -1   21.84    5.20
  14  -4   1   20.57    3.74
 -14   4   1   19.10    4.70
  14   4  -1   26.04    5.25
 -14  -4   1   20.46    5.03
  14   4   1   26.24    4.33
  14   4   1   20.50    5.45
 -14   4  -1   24.02    5.01
  14  -4  -1   28.64    3.94
  14   4   1   21.64    3.82
  14  -4  -1   18.56    3.41
 -14  -4  -2    4.92    3.83
 -14  -4  -2    2.01    5.33
  14   4  -2    5.44    3.44
 -14  -4  -2    2.48    4.91
  14   4  -2   12.71    4.92
  14   4  -2   14.42    4.23
  14  -4   2   10.51    3.97
 -14   4   2    4.74    4.24
  14  -4   2    6.35    3.41
  14   4   2    7.36    3.32
  14   4   2   16.07    4.28
 -14   4  -2    6.36    4.34
  14  -4  -2   10.93    3.56
  14  -4  -2    7.17    2.98
  14   4   2   13.80    5.80
 -14  -4   2    3.28    4.23
  14   4  -3   11.64    4.95
  14   4  -3   11.54    3.92
 -14   4   3    1.58    4.90
 -14  -4  -3   12.73    5.87
  14  -4   3   11.42    3.66
  14   4  -3    9.52    4.31
 -14  -4  -3    9.93    4.16
 -14  -4  -3    9.69    5.55
 -14   4   3    9.51    4.52
  14  -4   3   15.88    4.35
 -14   4  -3   11.21    4.99
  14  -4  -3   14.67    3.30
  14   4   3   21.41    4.33
  14   4   3   17.56    3.71
  14   4   3   12.71    5.77
  14  -4   4    7.45    4.69
  14  -4   4   13.11    3.93
 -14  -4  -4   10.53    6.14
  14   4  -4    8.63    4.81
 -14  -4  -4   14.07    4.38
  14   4  -4   18.21    5.40
 -14   4   4    9.76    5.33
 -14  -4  -4    6.24    6.34
 -14   4   4   14.85    4.87
 -14   4  -4   11.06    5.75
  14   4   4   10.63    3.98
  14   4   4   10.94    3.58
  14  -4  -4    8.92    4.53
  14   4   4   11.04    6.03
  14  -4  -4   13.23    3.41
 -14   4  -4    6.81    5.54
  14   4  -5   -0.45    5.07
 -14   4   5    9.64    4.59
  14  -4   5    5.52    5.75
 -14  -4  -5    0.78    4.21
 -14  -4  -5    4.94    6.70
 -14  -4  -5    6.34    6.53
  14  -4   5   10.36    4.97
  14  -4   5    6.85    3.81
 -14   4   5   -2.81    5.22
  14   4  -5    6.24    5.46
 -14   4  -5   -3.56    5.75
  14   4   5    5.86    6.24
 -14  -4   5    3.49    5.04
  14   4   5   10.53    4.22
 -14   4  -5    1.96    5.72
  14   4   5    5.87    3.49
 -14  -4   5    5.95    4.06
  14  -4  -5   -0.10    4.22
  14   4  -6    7.31    5.86
 -14   4   6    2.55    5.78
 -14   4   6    5.96    4.70
 -14  -4  -6    8.13    6.48
 -14  -4  -6   -0.41    4.13
  14  -4   6    5.09    4.08
  14  -4   6   -5.58    6.10
 -14  -4  -6    7.59    6.95
  14  -4   6    2.56    4.94
 -14   4  -6    2.86    6.03
  14   4   6    6.14    4.48
 -14  -4   6    9.17    4.83
  14   4   6   13.45    4.08
  14  -4  -6    7.81    4.66
 -14   4  -6    5.91    6.35
 -14  -4   6   18.08    5.98
  14   4   6    2.48    6.49
  15  -4   0   15.15    3.86
 -15  -4   0   18.42    4.89
  15   4   0   19.37    4.33
 -15   4   0   14.16    4.64
  15  -4   0   11.36    3.42
  15   4   0   14.38    3.66
  15   4   0   20.52    4.91
 -15  -4   0   17.84    5.26
  15   4  -1   26.98    5.18
  15   4  -1   21.55    3.93
 -15  -4  -1   20.88    5.42
  15  -4   1   21.34    4.17
  15   4  -1   20.30    4.40
 -15   4   1   16.15    4.67
 -15  -4  -1   13.21    5.56
  15  -4   1   21.51    3.74
 -15   4  -1   19.69    4.94
  15  -4  -1   23.34    3.95
 -15  -4   1   21.14    5.04
  15   4   1   25.60    5.86
  15   4   1   22.90    3.75
  15   4   1   27.20    4.47
  15  -4  -1   19.86    3.42
 -15  -4  -2   19.47    4.44
  15   4  -2   26.37    4.10
  15   4  -2   32.90    4.80
  15   4  -2   27.27    5.61
  15  -4   2   18.33    3.86
 -15  -4  -2   20.95    5.58
 -15   4   2   22.05    5.01
  15  -4   2   20.17    4.34
 -15  -4  -2   22.59    6.05
 -15  -4   2   27.83    5.01
 -15   4  -2   18.35    4.99
  15  -4  -2   20.63    3.41
  15   4   2   24.64    4.57
  15   4   2   26.55    3.95
  15   4   2   24.19    5.90
  15  -4  -2   25.38    3.92
 -15  -4  -3    9.17    4.34
  15   4  -3    9.06    4.68
 -15  -4  -3   -1.81    5.75
  15   4  -3    5.27    4.00
 -15   4   3    4.60    4.70
  15   4  -3    7.58    5.05
 -15  -4  -3   -0.27    5.77
  15  -4   3   10.15    4.45
 -15   4   3   -1.54    7.58
  15  -4   3    8.82    3.73
  15   4   3    8.91    4.37
  15   4   3   11.71    3.78
  15   4   3    7.57    5.81
  15  -4  -3   10.69    3.36
 -15   4  -3    1.59    5.10
  15  -4  -3   12.18    3.85
 -15  -4  -4    6.10    4.37
  15  -4   4    8.52    3.85
 -15  -4  -4   10.28    6.61
  15   4  -4    1.72    4.81
 -15  -4  -4    1.02    6.32
  15  -4   4    5.05    4.63
 -15   4   4    4.19    6.24
 -15   4   4    0.70    4.64
  15   4  -4    8.59    5.17
  15   4   4   -1.27    5.80
  15   4   4    4.34    3.66
 -15   4  -4   13.11    6.16
  15   4   4   -0.40    3.71
 -15   4  -4    5.20    5.83
  15  -4  -4    5.55    3.32
 -15   4   5   -4.00    4.62
 -15  -4  -5   -0.96    6.53
  15  -4   5   10.14    4.05
  15  -4   5    4.59    4.92
 -15  -4  -5    6.67    4.54
  15   4  -5   12.11    5.47
 -15   4   5   -4.84    5.74
  15   4  -5    7.23    5.48
  15  -4   5    0.29    7.27
 -15  -4  -5    1.92    6.85
  15   4   5    9.61    4.36
 -15  -4   5    1.68    5.10
  15   4   5    3.09    6.17
  15   4   5    6.41    3.48
  15  -4  -5    0.27    4.47
 -15  -4   5    4.52    4.02
 -15   4  -5    5.08    6.10
 -15   4  -5    3.38    6.33
 -16  -4   0   19.57    5.44
  16   4   0   25.12    5.16
  16   4   0   15.83    4.38
  16  -4   0   18.76    4.09
 -16  -4   0   21.38    5.65
 -16   4   0   20.83    5.19
  16   4   0   16.07    3.76
  16  -4   0   16.55    3.70
 -16   4   1    4.30    4.65
  16   4  -1   13.33    4.38
 -16  -4  -1    6.33    5.69
 -16  -4  -1    9.16    5.62
  16  -4   1    9.59    3.75
  16   4  -1   19.44    5.15
  16   4  -1   10.47    3.90
  16  -4   1   12.13    4.04
  16  -4  -1   11.65    3.70
  16  -4  -1    5.75    3.24
  16   4   1   12.06    3.81
  16   4   1   17.25    5.76
 -16   4  -1    8.41    4.78
 -16  -4   1   11.17    4.82
  16   4   1   15.92    4.38
 -16  -4   1    8.53    5.03
  16   4  -2   21.84    5.51
 -16  -4  -2    8.66    5.98
  16  -4   2    9.92    3.69
  16   4  -2   15.19    4.67
 -16   4   2   13.29    5.21
 -16  -4  -2   11.96    6.13
 -16  -4  -2    5.76    4.31
  16  -4   2    7.83    4.21
  16   4  -2   13.25    4.05
  16   4   2    9.13    5.75
  16   4   2   12.70    4.72
 -16   4  -2    4.50    4.81
  16  -4  -2    8.75    3.63
 -16  -4   2    4.76    4.68
  16   4   2   14.14    3.85
  16  -4  -2   14.13    3.36
  16   4  -3   11.37    5.25
  16  -4   3    9.98    4.63
 -16  -4  -3    4.80    6.25
 -16  -4  -3    1.65    4.50
  16   4  -3    7.11    4.88
 -16  -4  -3   -1.35    6.17
  16  -4   3    5.24    3.73
  16   4  -3    9.62    4.20
 -16   4   3    1.24    5.01
  16   4   3    4.67    3.75
  16   4   3    7.27    4.71
 -16   4  -3   -0.75    6.00
  16   4   3    4.66    6.09
 -16  -4   3    0.33    4.59
 -16   4  -3    3.65    5.07
  16  -4  -3   10.36    3.54
  16  -4   4    8.95    3.94
 -16  -4  -4    1.99    6.59
 -16  -4  -4    4.24    6.86
  16  -4   4    7.80    4.83
  16   4  -4   14.93    5.36
 -16   4   4    5.42    5.15
 -16  -4  -4    3.09    4.38
  16   4  -4   10.23    5.21
 -16   4  -4   -2.10    5.99
  16   4   4    5.87    6.26
 -16   4  -4    7.86    6.36
  16  -4  -4    5.98    3.48
  16   4   4    9.47    4.83
  16   4   4    4.51    3.88
  16  -4   5    5.29    5.05
  16   4  -5   16.74    5.85
  16   4  -5   13.58    5.94
 -16  -4  -5    3.22    4.73
  16  -4   5    7.72    4.08
 -16   4   5    6.28    5.33
 -16  -4  -5    3.30    6.95
 -16  -4  -5   -8.62    6.59
  16   4   5    5.90    4.33
 -16   4  -5   -0.06    6.34
 -16   4  -5    5.64    6.82
  16   4   5    1.89    6.30
 -16  -4   5    5.06    4.19
  16   4   5   10.45    3.99
  17  -4   0   14.66    3.92
  17   4   0   10.32    3.86
 -17  -4   0    9.58    5.63
 -17   4   0    6.61    5.13
  17  -4   0    8.91    3.57
 -17  -4   0    6.43    5.69
  17   4   0   15.01    4.59
  17   4   0   15.06    4.98
 -17   4   1    8.44    5.49
 -17  -4  -1    0.87    5.86
 -17  -4  -1    7.94    6.14
  17  -4   1   12.12    3.97
  17   4  -1   17.82    4.72
  17   4  -1   28.05    5.45
  17   4  -1   19.66    4.37
  17  -4   1   13.74    4.38
 -17   4  -1    9.40    5.17
 -17  -4   1   14.00    5.30
  17   4   1   20.09    5.62
 -17  -4   1    4.36    5.43
  17   4   1   14.10    4.66
  17   4   1    8.01    3.94
  17  -4  -1   14.57    3.89
  17  -4  -1   12.92    3.51
 -17  -4  -2    8.81    6.68
 -17   4   2    9.41    5.43
  17   4  -2   12.17    4.21
  17   4  -2   10.67    4.78
  17   4  -2   12.79    5.22
 -17  -4  -2    6.20    4.74
 -17  -4  -2    5.83    6.36
  17  -4   2   12.89    4.45
  17  -4   2    9.19    3.65
  17  -4  -2   15.35    3.82
 -17  -4   2    8.90    5.28
  17   4   2   15.41    6.10
  17   4   2   11.90    3.97
  17   4   2   11.89    4.84
 -17   4  -2   10.30    5.47
  17  -4  -2   12.43    3.43
 -17  -4  -3    3.62    6.41
  17  -4   3   10.13    4.57
 -17  -4  -3    0.58    6.54
 -17   4   3    6.52    5.44
 -17  -4  -3   -0.53    4.74
  17   4  -3    4.69    4.25
  17  -4   3    2.51    3.66
  17   4  -3   18.93    5.65
  17   4  -3    9.02    5.06
  17  -4  -3    8.83    3.57
  17   4   3    5.46    3.92
  17   4   3    1.41    5.98
 -17   4  -3   12.72    6.46
  17  -4  -3   16.56    4.17
  17   4   3    3.83    4.95
 -17   4  -3   -0.93    5.44
  17  -4   4    6.58    4.93
  17   4  -4   10.00    5.35
 -17  -4  -4    4.00    5.05
 -17  -4  -4    4.62    7.19
  17  -4   4   -0.48    3.70
 -17   4   4   -1.75    5.45
 -17  -4  -4   -5.79    6.55
  17   4  -4    2.19    4.87
 -17   4  -4    3.85    6.69
 -17   4  -4   -0.03    6.21
  17  -4  -4    2.54    3.59
  17   4   4    2.65    6.25
  17   4   4   12.86    5.07
  17   4   4    3.43    3.90
  18   4   0    8.36    4.00
 -18  -4   0    5.62    6.20
  18  -4   0   13.15    3.94
  18  -4   0    5.85    3.52
 -18   4   0    2.71    5.44
  18   4   0    7.85    4.56
 -18  -4   0    1.05    5.70
  18   4   0   20.04    5.20
  18  -4   1    9.92    3.94
 -18  -4  -1   -4.83    6.16
  18   4  -1    4.89    4.43
 -18   4   1    5.38    5.52
  18   4  -1   -1.19    4.02
 -18  -4  -1   -2.10    6.02
  18  -4   1   12.23    4.29
  18   4  -1   20.97    5.05
  18  -4  -1   10.72    3.88
  18   4   1   10.86    4.04
  18   4   1   14.29    4.77
  18  -4  -1   12.82    3.61
 -18  -4   1   -1.44    5.49
  18   4   1   14.61    5.46
 -18   4  -1    1.13    5.19
 -18  -4   1    7.13    5.53
 -18  -4  -2    7.27    4.69
  18   4  -2   16.61    5.28
  18   4  -2    3.09    4.07
 -18  -4  -2    2.61    6.53
  18  -4   2   12.85    4.31
 -18  -4  -2   -2.38    6.41
  18  -4   2   12.33    4.45
  18   4  -2   10.41    4.84
 -18   4   2    7.92    5.57
 -18   4  -2   -0.06    5.34
  18  -4  -2   13.91    3.77
  18   4   2   13.42    4.15
 -18  -4   2   -3.71    5.26
  18  -4  -2    5.35    3.30
  18   4   2   18.95    6.22
  18   4   2   16.92    4.90
  18   4  -3    6.14    4.38
  18   4  -3   11.34    5.29
 -18  -4  -3   -0.10    6.86
  18  -4   3   10.56    4.67
  18   4  -3    9.79    5.09
 -18  -4  -3    5.36    5.16
 -18  -4  -3    7.54    7.04
  18  -4   3    3.05    3.75
 -18   4   3   -2.76    5.57
  18  -4  -3    9.38    3.62
  18   4   3    8.08    4.01
 -18   4  -3   -0.81    5.59
 -18   4  -3    6.51    6.73
  18   4   3    9.55    5.11
  18   4   3   13.24    6.34
  18  -4  -3   12.77    4.15
  19   4   0   21.80    5.43
  19  -4   0    7.24    3.56
  19  -4   0   11.42    4.07
 -19   4   0   -2.15    5.43
  19   4   0    7.23    4.13
  19   4   0   10.01    4.71
 -19  -4   0   -0.25    6.25
 -19  -4   0    2.32    6.36
 -19  -4  -1   -0.52    6.22
  19  -4   1    9.19    4.35
 -19   4   1   -0.75    5.73
  19   4  -1    7.66    4.31
  19  -4   1    7.82    3.92
  19   4  -1   18.15    4.92
 -19  -4  -1    1.06    6.70
  19   4   1    5.97    4.77
  19  -4  -1   18.83    4.18
 -19   4  -1    0.45    5.71
  19   4   1    7.55    4.19
 -19  -4   1    4.48    5.82
 -19  -4   1    4.75    5.89
  19   4   1   21.84    5.32
  19  -4  -1   10.78    3.69
 -19  -4  -2    5.56    7.21
  19  -4   2   12.90    4.47
 -19  -4  -2    5.36    5.03
  19   4  -2   14.75    5.07
 -19  -4  -2    1.64    6.83
  19   4  -2    9.45    4.92
  19  -4   2    5.80    4.57
 -19   4   2    2.49    6.03
  19   4  -2    8.49    4.39
 -19   4  -2   -6.06    5.57
 -19  -4   2   -1.36    5.63
  19   4   2   16.64    6.11
  19   4   2   13.73    4.42
  19  -4  -2   16.97    3.90
  19  -4  -2    4.01    3.49
  19   4   2    9.11    5.04
   0   5   0    1.65    1.28
   0  -5  -1   47.68    2.41
   0  -5  -1   45.60    2.96
   0  -5   1   47.98    2.58
   0   5  -1   44.08    2.65
   0  -5   1   44.61    2.25
   0   5  -1   45.19    4.35
   0   5   1   48.39    3.59
   0  -5  -1   46.12    2.66
   0   5  -2    2.44    1.79
   0  -5   2    1.61    1.75
   0  -5  -2    0.82    1.69
   0   5  -2    0.61    2.53
   0  -5   2    2.24    1.56
   0  -5   2    2.98    1.70
   0   5   2    3.70    1.91
   0  -5  -2    1.17    1.64
   0   5   2    1.30    2.04
   0  -5  -2    3.67    1.93
   0  -5   3   44.60    3.40
   0  -5   3   45.16    3.67
   0   5  -3   40.98    4.87
   0   5   3   42.40    4.29
   0   5   3   43.06    3.92
   0  -5  -3   45.76    4.21
   0  -5  -3   38.51    3.30
   0  -5   3   43.89    2.97
   0  -5  -3   41.84    2.85
   0   5  -3   36.89    3.62
   0  -5  -3   43.77    3.71
   0  -5  -4   35.64    4.73
   0  -5   4   36.22    3.40
   0  -5   4   39.81    4.31
   0  -5   4   35.84    3.82
   0   5   4   32.94    4.51
   0  -5  -4   31.52    4.10
   0  -5  -4   33.31    3.75
   0   5   4   35.70    5.01
   0  -5  -4   29.82    3.10
   0   5  -4   35.15    5.32
   0  -5  -5   38.02    5.70
   0   5   5   35.44    6.01
   0  -5   5   34.90    4.96
   0   5  -5   35.33    6.11
   0  -5   5   32.44    3.83
   0   5   5   35.46    5.25
   0  -5   5   31.66    4.08
   0  -5  -5   36.14    4.68
   0  -5  -5   35.31    3.79
   0  -5  -5   32.11    4.24
   0  -5   6   19.95    4.56
   0  -5  -6   13.44    4.85
   0  -5   6   18.09    5.15
   0   5   6   18.45    6.23
   0  -5  -6   14.13    4.52
   0   5   6   18.33    5.68
   0  -5  -6   17.62    3.65
   0   5  -6   17.24    6.07
   0  -5  -6   14.73    5.42
   0  -5   6   15.05    3.79
   0   5   7   47.79    8.02
   0   5  -7   42.30    7.59
   0  -5   7   43.55    5.86
   0  -5  -7   52.99    4.11
   0  -5  -7   52.82    5.95
   0   5   7   40.78    7.19
   0  -5   7   46.35    6.93
   0  -5  -7   52.08    5.54
   0  -5  -7   40.94    7.01
   0  -5   7   41.19    5.04
   0   5   8   36.94    8.19
   0  -5   8   21.03    6.19
   0  -5  -8   36.62    5.18
   0  -5   8   24.93    5.19
   0  -5  -8   36.21    5.42
   0   5  -8   33.59    7.98
   0   5   8   23.36    8.10
   0  -5   8   24.30    7.18
   0  -5  -8   39.38    4.53
   0  -5  -8   31.86    7.39
   1   5   0   38.90    4.00
   1   5   0   31.68    2.78
   1  -5   0   33.03    2.03
  -1   5   0   40.10    4.09
  -1  -5   0   30.50    2.92
   1  -5   0   34.74    2.34
  -1  -5  -1   52.71    2.80
  -1  -5  -1   56.30    2.56
  -1  -5  -1   53.51    3.12
   1  -5   1   54.44    2.44
   1  -5   1   55.64    2.66
   1   5  -1   53.41    4.37
   1   5  -1   53.37    2.94
  -1   5   1   62.63    3.91
   1  -5  -1   56.11    2.70
  -1  -5   1   60.01    2.41
  -1   5  -1   58.27    4.66
  -1  -5   1   56.55    2.72
   1  -5  -1   58.63    2.46
   1   5   1   57.29    3.62
   1  -5  -1   56.17    2.96
   1   5   1   61.42    3.29
  -1  -5  -2    7.00    1.91
   1  -5   2   10.50    2.01
   1  -5   2    8.18    1.79
   1   5  -2    8.57    2.04
  -1  -5  -2    6.14    2.07
  -1   5   2    6.69    2.36
   1   5  -2    8.68    2.88
   1  -5   2    8.87    2.01
  -1  -5  -2    7.63    1.84
  -1  -5   2    7.78    1.92
  -1  -5   2    7.62    1.66
   1   5   2    9.91    2.25
   1   5   2    8.56    2.30
   1  -5  -2    7.82    1.89
   1  -5  -2    9.17    2.11
  -1   5  -2    9.34    2.05
  -1   5  -2    5.73    2.79
   1  -5  -2    8.77    1.73
  -1  -5  -3   70.02    3.72
  -1  -5  -3   71.19    3.36
   1  -5   3   71.98    4.16
  -1   5   3   68.65    4.12
   1  -5   3   66.91    3.52
  -1   5   3   71.57    4.91
   1   5  -3   68.26    4.32
  -1  -5  -3   69.92    4.59
   1  -5   3   72.08    3.95
   1   5  -3   67.32    5.34
  -1  -5  -3   62.54    4.08
   1  -5  -3   68.34    3.16
  -1   5  -3   70.31    5.44
  -1  -5   3   72.72    3.39
  -1  -5   3   72.39    4.32
  -1  -5   3   69.11    3.81
   1   5   3   72.02    4.48
   1  -5  -3   74.16    4.87
   1  -5  -3   74.09    4.11
  -1   5  -3   70.93    4.34
   1   5   3   70.53    4.78
   1  -5  -3   69.46    3.67
  -1   5   4   20.98    3.64
  -1  -5  -4   23.01    4.07
  -1  -5  -4   19.25    3.01
   1   5  -4   19.14    4.44
  -1   5   4   20.85    4.35
   1   5  -4   22.73    3.70
   1  -5   4   21.13    3.62
   1  -5   4   23.98    3.29
  -1  -5  -4   17.31    3.25
   1  -5   4   19.98    2.86
  -1  -5  -4   21.00    2.77
   1   5   4   22.49    4.35
   1  -5  -4   23.29    4.14
   1  -5  -4   16.94    2.93
  -1  -5   4   17.36    2.77
  -1  -5   4   23.42    3.27
   1   5   4   18.99    3.82
   1  -5  -4   21.22    3.26
   1  -5  -4   23.50    2.79
  -1  -5   4   20.38    3.52
  -1   5  -4   26.41    4.94
  -1   5   5    4.54    4.57
   1  -5   5    9.88    3.46
  -1  -5  -5   10.22    3.58
   1  -5   5    2.63    3.01
   1   5  -5   12.42    4.96
  -1  -5  -5    6.07    3.79
   1  -5   5    8.20    4.09
  -1   5   5   15.22    4.34
  -1  -5  -5   12.46    3.16
  -1  -5  -5    6.94    4.21
  -1  -5   5    4.93    3.62
  -1  -5   5    5.46    3.31
   1  -5  -5    5.13    3.44
   1   5   5   10.21    4.75
   1   5   5   11.25    4.47
  -1   5  -5    4.32    4.44
  -1  -5   5    9.27    3.06
   1  -5  -5    8.71    4.22
   1  -5  -5    4.49    3.21
   1  -5  -5    5.90    2.90
  -1   5   6   22.82    5.76
  -1  -5  -6   23.18    5.08
   1   5  -6   19.95    6.33
  -1  -5  -6   15.89    3.72
   1  -5   6   20.03    5.49
   1  -5   6   20.04    4.60
   1  -5   6   13.57    4.01
  -1  -5  -6   22.24    5.97
  -1  -5  -6   26.46    4.71
  -1   5   6   25.13    6.41
   1  -5  -6   22.34    4.97
   1   5   6   18.24    6.24
  -1  -5   6   19.45    4.58
  -1  -5   6   20.93    5.42
   1  -5  -6   19.88    3.83
  -1   5  -6   17.09    6.04
   1  -5  -6   23.02    4.47
   1   5   6   20.62    5.95
   1  -5  -6   14.01    5.32
  -1  -5   6   20.25    3.99
   1  -5   7   10.13    5.60
  -1  -5  -7   15.07    4.41
  -1  -5  -7   11.84    5.58
  -1  -5  -7    9.69    3.29
   1  -5   7    4.84    4.63
  -1  -5  -7   13.71    4.65
   1  -5   7    7.78    4.07
   1   5  -7   11.81    5.98
  -1   5   7   12.94    6.13
  -1   5   7    6.46    6.00
   1  -5  -7    4.00    5.17
  -1  -5   7    4.92    4.50
   1   5   7   13.55    6.07
  -1  -5   7    4.83    5.10
   1  -5  -7   14.08    4.41
   1  -5  -7   11.40    4.00
   1   5   7    4.93    5.87
   1  -5  -7   15.07    3.44
  -1  -5   7    7.18    3.45
  -1   5  -7    9.39    5.68
  -1  -5  -8   14.02    6.44
  -1  -5  -8   18.81    4.80
  -1   5   8    3.71    7.28
  -1   5   8   19.61    7.16
   1  -5   8    4.95    6.37
  -1  -5  -8   22.25    5.22
  -1  -5  -8   13.79    3.43
   1  -5   8    3.12    5.44
   1   5  -8   14.45    6.99
   1  -5   8    7.01    4.68
  -1  -5   8    8.10    6.32
  -1   5  -8   16.67    6.95
   1  -5  -8   22.13    4.56
   1  -5  -8   20.50    4.90
   1   5   8   20.25    6.92
  -1  -5   8    9.14    5.42
   1   5   8    2.35    7.12
   1  -5  -8   10.39    6.13
  -1  -5   8    9.50    4.68
   1  -5  -8   18.94    3.75
   2   5   0   61.49    3.34
  -2   5   0   63.69    4.46
   2   5   0   65.18    4.20
  -2  -5   0   57.42    2.34
   2  -5   0   57.19    2.15
   2  -5   0   62.01    2.72
   2   5  -1   62.89    4.21
  -2  -5  -1   61.15    3.34
  -2  -5  -1   62.18    2.67
  -2  -5  -1   64.32    3.00
   2  -5   1   60.96    2.61
   2   5  -1   65.41    3.22
   2   5  -1   65.18    2.70
  -2   5   1   68.91    4.16
  -2  -5   1   66.10    2.84
  -2   5  -1   69.07    5.07
   2  -5  -1   69.22    2.87
   2  -5  -1   66.25    3.15
   2   5   1   66.33    3.57
   2  -5  -1   66.03    2.51
   2   5   1   67.02    3.60
  -2  -5  -2   21.57    2.69
  -2  -5  -2   21.72    2.28
   2  -5   2   23.66    2.53
   2  -5   2   21.92    2.32
  -2   5   2   25.26    3.32
   2  -5   2   24.04    2.74
   2   5  -2   20.20    2.72
   2   5  -2   19.89    3.64
  -2  -5  -2   21.81    2.73
  -2  -5   2   23.52    2.53
   2  -5  -2   26.56    2.76
  -2  -5   2   26.02    2.22
   2   5   2   26.69    3.11
   2  -5  -2   24.42    2.40
   2  -5  -2   23.67    2.13
  -2   5  -2   24.71    4.01
   2   5   2   23.90    2.94
  -2  -5  -3   20.91    3.52
   2  -5   3   19.30    2.71
  -2   5   3   19.27    3.49
  -2   5   3   20.49    2.84
  -2  -5  -3   16.96    2.78
   2   5  -3   21.67    4.14
  -2  -5  -3   17.32    3.00
   2  -5   3   19.74    2.56
   2  -5   3   22.51    3.09
  -2  -5  -3   20.58    2.52
   2   5  -3   17.92    3.01
   2   5   3   17.29    3.18
  -2  -5   3   17.30    2.89
   2   5   3   23.45    3.34
  -2  -5   3   21.49    2.43
   2  -5  -3   21.04    3.62
   2  -5  -3   19.94    2.52
   2  -5  -3   16.98    2.71
   2  -5  -3   25.00    2.50
  -2  -5   3   18.16    2.62
  -2   5  -3   20.19    4.11
  -2   5   4   38.77    5.22
   2  -5   4   36.72    3.63
  -2  -5  -4   37.87    3.88
  -2  -5  -4   37.48    4.32
   2  -5   4   38.05    4.04
  -2  -5  -4   39.30    4.64
  -2   5   4   37.87    4.53
   2   5  -4   35.11    5.50
   2   5  -4   39.39    4.49
   2  -5   4   38.53    4.50
  -2  -5  -4   37.86    3.27
  -2  -5   4   42.04    4.52
   2   5   4   36.81    4.97
   2  -5  -4   41.44    3.71
   2  -5  -4   37.71    4.09
  -2   5  -4   37.58    5.59
   2  -5  -4   41.60    5.03
  -2  -5   4   42.28    3.45
   2   5   4   37.82    4.98
  -2  -5   4   35.06    3.90
   2  -5  -4   37.99    3.16
   2   5  -5   50.01    6.94
  -2  -5  -5   44.41    5.08
  -2   5   5   50.34    6.65
  -2  -5  -5   45.17    5.62
  -2   5   5   48.81    5.96
  -2  -5  -5   44.61    5.99
   2  -5   5   37.81    4.43
   2  -5   5   46.53    4.53
   2   5  -5   38.46    5.39
  -2  -5  -5   45.25    4.05
   2  -5   5   45.05    5.77
  -2  -5   5   47.65    5.40
   2   5   5   51.58    6.64
  -2   5  -5   40.89    6.73
   2  -5  -5   44.22    4.57
   2  -5  -5   42.67    5.10
   2  -5  -5   48.17    3.75
  -2  -5   5   48.44    4.37
  -2  -5   5   46.97    4.97
   2   5   5   46.17    6.21
   2  -5  -5   48.46    6.18
   2   5  -6   30.95    6.80
  -2  -5  -6   38.56    4.28
  -2  -5  -6   30.39    5.35
   2  -5   6   26.96    5.01
  -2   5   6   31.81    6.07
   2  -5   6   33.73    6.03
  -2  -5  -6   29.61    4.96
   2  -5   6   25.40    4.40
  -2   5   6   29.63    6.56
  -2  -5  -6   35.12    6.42
   2  -5  -6   32.60    4.01
   2  -5  -6   37.44    6.61
  -2   5  -6   26.90    6.66
  -2  -5   6   28.88    5.00
   2  -5  -6   36.44    5.07
   2  -5  -6   32.59    4.69
  -2  -5   6   26.00    4.03
   2   5   6   22.66    6.12
   2   5   6   40.82    7.06
  -2  -5   6   34.09    5.69
  -2  -5  -7   33.34    4.09
   2  -5   7   21.23    5.30
   2  -5   7   21.30    4.58
   2  -5   7   31.61    6.59
  -2  -5  -7   27.93    6.50
   2   5  -7   31.87    7.34
  -2  -5  -7   36.43    5.50
  -2   5   7   16.30    6.33
  -2   5   7   28.48    6.78
  -2  -5  -7   31.60    4.85
  -2  -5   7   20.62    4.06
   2  -5  -7   26.11    4.38
  -2  -5   7   21.30    5.76
   2  -5  -7   29.35    3.90
  -2  -5   7   28.93    5.29
  -2   5  -7   35.75    7.16
   2  -5  -7   30.78    6.64
   2   5   7   19.42    6.42
   2   5   7   29.49    6.85
   2  -5  -7   25.70    4.70
  -2  -5  -8   30.11    5.72
  -2  -5  -8   25.84    7.02
  -2  -5  -8   30.61    5.26
  -2   5   8   18.16    7.80
  -2   5   8   28.96    7.64
   2   5  -8   27.08    7.79
   2  -5   8   18.74    7.21
  -2  -5  -8   25.67    4.10
   2  -5   8   15.35    5.95
   2  -5   8   16.51    4.95
   2  -5  -8   23.16    6.91
   2   5   8   26.89    7.35
   2   5   8   17.67    5.04
   2   5   8   15.29    7.45
  -2  -5   8   19.14    5.08
   2  -5  -8   30.75    4.88
  -2  -5   8   16.31    5.66
   2  -5  -8   26.52    4.05
  -2  -5   8   20.78    6.83
  -2   5  -8   33.18    8.19
   2  -5  -8   28.86    5.10
   3   5   0  123.15    3.24
   3  -5   0  123.62    3.11
  -3   5   0  123.57    5.46
   3   5   0  122.42    3.05
   3   5   0  127.68    4.44
   3  -5   0  122.70    3.70
   3   5   0  127.99    4.81
   3   5  -1  102.68    3.95
   3  -5   1  107.50    3.28
  -3  -5  -1  101.73    4.02
  -3   5   1  108.28    4.92
  -3  -5  -1  109.59    3.26
   3  -5   1   95.33    3.16
   3   5  -1  101.04    4.72
   3   5  -1  108.19    3.33
  -3  -5  -1  101.62    3.66
   3  -5  -1  105.96    3.01
   3   5   1  106.55    4.38
   3   5   1  104.32    3.99
  -3   5  -1  109.12    5.78
   3  -5  -1  105.07    3.40
   3  -5  -1  103.68    3.69
  -3   5  -1  104.94    3.29
  -3   5   2  126.43    5.41
  -3  -5  -2  124.38    4.34
   3   5  -2  125.08    3.99
  -3  -5  -2  123.17    4.74
   3   5  -2  120.99    5.51
   3  -5   2  121.00    4.27
  -3  -5  -2  123.98    3.78
   3   5  -2  122.92    4.64
   3  -5   2  123.11    3.92
   3  -5  -2  117.16    3.42
  -3  -5   2  118.30    3.93
  -3   5  -2  122.13    5.87
   3   5   2  120.54    4.79
   3   5   2  113.41    4.50
   3  -5  -2  123.72    4.32
   3  -5  -2  116.65    3.90
  -3  -5  -3  116.55    5.20
   3  -5   3  120.64    4.47
   3  -5   3  117.68    4.88
  -3   5   3  122.47    6.11
   3   5  -3  126.48    6.48
  -3  -5  -3  123.88    4.76
   3  -5   3  116.54    5.08
   3   5  -3  123.66    5.32
  -3  -5  -3  116.77    5.29
  -3  -5  -3  120.09    4.08
   3  -5  -3  121.83    5.98
   3  -5  -3  115.32    4.38
  -3  -5   3  119.91    5.15
   3   5   3  121.58    5.55
   3  -5  -3  116.78    4.77
  -3  -5   3  118.85    4.50
   3  -5  -3  123.35    3.83
  -3   5  -3  122.20    6.62
   3   5   3  125.18    5.66
  -3  -5   3  122.99    4.20
  -3   5   4   28.17    4.91
  -3  -5  -4   24.02    4.32
   3   5  -4   29.47    4.02
  -3  -5  -4   27.52    3.15
   3  -5   4   30.48    4.20
  -3  -5  -4   28.03    3.57
   3   5  -4   33.30    5.37
  -3  -5  -4   29.88    3.96
   3  -5   4   30.17    3.72
   3  -5   4   26.47    3.32
  -3   5   4   29.93    3.88
   3  -5  -4   26.53    2.84
  -3   5  -4   30.70    5.53
   3   5   4   28.02    4.48
   3  -5  -4   27.20    3.19
  -3  -5   4   28.88    3.34
   3   5   4   27.00    4.31
   3  -5  -4   29.90    3.58
  -3  -5   4   27.38    3.02
   3  -5  -4   26.20    4.68
  -3  -5   4   26.26    3.95
  -3  -5  -5   14.20    3.23
   3  -5   5   17.84    4.71
  -3  -5  -5   15.70    4.63
  -3  -5  -5    8.56    3.59
   3   5  -5   17.18    5.56
   3  -5   5   11.25    3.75
  -3   5   5   14.43    5.06
   3   5  -5   12.77    4.02
  -3   5   5   13.99    4.35
  -3  -5  -5   14.89    4.22
   3  -5   5   10.31    3.41
  -3   5  -5   10.21    5.15
   3  -5  -5   14.91    3.76
   3   5   5   15.39    4.76
  -3  -5   5   18.11    3.25
   3  -5  -5   17.57    3.09
   3  -5  -5   13.91    3.41
   3   5   5   13.89    5.11
   3  -5  -5   15.46    4.76
  -3  -5   5   12.33    3.68
  -3  -5   5   12.49    4.10
   3  -5   6   41.80    6.45
  -3  -5  -6   43.76    5.39
  -3  -5  -6   40.24    6.73
  -3   5   6   38.11    6.14
   3   5  -6   37.59    7.43
  -3  -5  -6   34.61    4.20
   3  -5   6   31.46    4.58
  -3  -5  -6   39.06    5.87
   3  -5   6   33.42    5.15
  -3   5   6   32.89    6.66
   3   5   6   35.76    6.46
  -3   5  -6   35.55    7.05
   3  -5  -6   33.08    6.40
   3   5   6   44.01    7.30
   3  -5  -6   39.03    5.05
   3   5   6   32.95    4.52
  -3  -5   6   28.24    5.42
   3  -5  -6   35.83    3.93
  -3  -5   6   31.13    4.16
   3  -5  -6   39.04    5.01
  -3  -5   6   34.60    4.98
  -3   5   7   12.05    5.81
  -3  -5  -7   15.26    4.38
  -3  -5  -7    8.12    5.48
  -3  -5  -7   16.75    5.00
   3  -5   7    7.02    4.69
  -3   5   7    2.78    5.73
  -3  -5  -7   10.22    3.34
   3  -5   7    4.01    5.64
   3   5  -7   10.82    6.30
   3  -5   7    1.33    3.95
   3  -5  -7    6.93    3.92
   3  -5  -7    5.87    3.12
   3  -5  -7   10.43    4.11
  -3   5  -7   11.91    5.93
   3   5   7    0.07    5.67
  -3  -5   7   12.71    5.41
  -3  -5   7    4.80    3.58
  -3  -5   7    6.05    4.58
   3  -5  -7    7.29    5.46
   3   5   7   16.51    6.09
  -3  -5  -8    5.17    5.68
  -3  -5  -8    3.56    3.28
   3  -5   8   -5.14    5.25
   3  -5   8   -4.10    6.37
   3  -5   8   -2.54    4.27
  -3   5   8   -3.71    6.88
  -3   5   8    0.63    5.98
   3   5  -8    3.73    6.87
  -3  -5  -8    6.58    4.74
  -3  -5  -8    9.01    4.31
   3   5   8    4.33    6.10
   3  -5  -8    1.25    3.83
  -3  -5   8    2.11    5.74
   3  -5  -8    6.36    4.32
   3  -5  -8    4.68    3.25
  -3  -5   8    6.12    5.37
   3   5   8   -4.45    6.60
   3   5   8   -1.87    4.28
  -3  -5   8   -4.07    3.65
  -3   5  -8    4.04    6.15
   3  -5  -8    1.70    5.68
   4  -5   0  129.13    3.97
  -4   5   0  127.60    5.59
   4   5   0  124.01    3.52
   4   5   0  131.65    4.71
  -4   5   0  129.05    3.97
   4   5   0  128.18    3.25
   4  -5   1   71.63    2.90
  -4  -5  -1   73.87    2.96
  -4   5   1   77.28    4.61
   4   5  -1   74.10    2.98
  -4  -5  -1   73.69    3.35
   4   5  -1   74.81    3.73
   4  -5   1   73.21    3.30
  -4  -5  -1   70.35    3.73
   4   5   1   74.97    4.23
  -4   5  -1   77.22    5.31
   4   5   1   79.02    2.80
   4  -5  -1   75.19    3.38
   4   5   1   77.34    2.45
  -4   5  -1   76.43    3.16
   4  -5  -1   74.53    2.68
   4   5  -2   52.46    3.55
  -4  -5  -2   49.98    3.79
  -4   5   2   51.00    4.24
   4  -5   2   55.40    3.00
   4   5  -2   52.20    4.30
   4  -5   2   55.29    3.50
  -4  -5  -2   53.65    2.89
   4   5  -2   51.72    3.09
  -4  -5  -2   54.63    3.42
   4  -5  -2   53.25    2.52
   4   5   2   54.40    2.78
   4  -5  -2   53.82    2.96
  -4  -5   2   57.23    3.20
  -4   5  -2   56.73    3.08
  -4   5  -2   57.18    4.73
   4   5   2   58.22    4.18
   4  -5  -2   56.36    3.27
  -4  -5  -3   36.18    3.71
   4   5  -3   35.19    4.80
   4  -5   3   32.38    3.80
  -4   5   3   35.28    4.28
  -4  -5  -3   40.03    4.07
  -4  -5  -3   35.26    3.68
   4   5  -3   33.71    3.80
   4  -5   3   36.49    3.88
   4  -5   3   27.66    3.15
  -4  -5  -3   36.07    3.10
   4  -5  -3   38.92    4.30
   4   5   3   38.93    3.93
   4  -5  -3   35.41    3.13
   4   5   3   37.49    4.61
  -4   5  -3   38.71    4.98
   4  -5  -3   38.19    2.63
  -4  -5   3   34.58    3.28
  -4  -5   3   33.51    2.87
   4  -5  -3   34.97    3.47
   4  -5   4   57.05    5.20
   4  -5   4   52.18    4.00
  -4  -5  -4   50.01    4.87
   4  -5   4   53.74    4.62
  -4  -5  -4   49.17    4.97
  -4   5   4   49.03    4.76
  -4  -5  -4   50.59    4.58
   4   5  -4   45.58    4.78
  -4  -5  -4   48.51    3.66
  -4   5   4   47.15    5.66
   4   5  -4   51.31    6.11
  -4  -5   4   49.99    4.79
   4   5   4   47.27    5.23
   4  -5  -4   52.62    3.25
  -4  -5   4   51.43    4.18
   4  -5  -4   51.47    3.93
   4   5   4   50.44    5.55
  -4   5  -4   47.28    6.10
   4   5   4   52.21    3.92
  -4  -5   4   46.87    3.68
   4  -5  -4   50.72    5.55
   4  -5  -4   49.29    4.27
  -4  -5  -5   32.65    5.68
   4  -5   5   32.22    4.57
  -4  -5  -5   29.74    4.52
  -4  -5  -5   34.08    3.76
   4   5  -5   30.90    6.20
  -4   5   5   39.74    5.14
   4   5  -5   33.68    5.03
  -4  -5  -5   33.93    5.15
   4  -5   5   29.33    3.99
   4  -5   5   39.57    5.51
  -4   5   5   30.51    5.81
  -4  -5   5   31.70    4.94
  -4   5  -5   29.71    6.25
   4  -5  -5   35.84    4.29
   4  -5  -5   36.81    4.41
   4   5   5   36.88    6.18
   4  -5  -5   34.86    3.46
   4  -5  -5   35.35    6.12
  -4  -5   5   33.56    4.20
   4   5   5   33.84    5.52
  -4  -5   5   33.61    3.78
   4   5  -6   24.22    6.75
  -4  -5  -6   26.90    5.62
  -4  -5  -6   21.03    3.89
  -4   5   6   24.50    6.39
   4  -5   6   25.48    5.90
   4   5  -6   26.92    5.37
   4  -5   6   18.16    4.16
  -4  -5  -6   23.45    5.82
   4  -5   6   22.77    4.75
  -4  -5  -6   19.01    4.67
  -4   5   6   29.69    5.89
   4  -5  -6   27.46    4.72
  -4   5  -6   19.22    6.43
   4   5   6   24.92    6.23
   4   5   6   19.08    4.18
   4  -5  -6   27.66    3.85
   4  -5  -6   25.25    6.23
  -4  -5   6   22.86    3.95
   4   5   6   23.04    5.84
  -4  -5   6   23.33    4.74
  -4  -5   6   23.63    5.24
   4  -5  -6   23.58    4.09
  -4   5   7   12.07    5.97
  -4  -5  -7   11.93    5.59
   4  -5   7   11.11    6.10
   4   5  -7   19.03    6.79
  -4  -5  -7   11.88    3.50
  -4  -5  -7   19.62    4.69
  -4  -5  -7   23.05    5.46
   4  -5   7    8.25    4.13
  -4   5   7   11.73    6.01
   4  -5   7    7.72    4.76
  -4  -5   7   15.33    4.81
   4   5   7   19.45    6.13
   4   5   7   17.42    6.42
  -4  -5   7   14.09    3.73
  -4  -5   7   10.19    5.24
   4  -5  -7   11.60    3.70
   4   5   7   17.46    4.27
   4  -5  -7   16.19    6.00
  -4   5  -7   10.26    5.84
   4  -5  -7   20.97    3.54
   4  -5  -7   12.48    4.02
   4   5  -8   13.41    7.03
  -4  -5  -8    2.81    5.55
   4  -5   8   -0.27    5.42
  -4  -5  -8   14.72    4.63
  -4   5   8   -3.96    6.79
  -4  -5  -8   16.08    5.25
  -4   5   8   12.55    6.47
   4  -5   8    0.25    6.92
   4  -5   8    2.40    4.51
  -4  -5  -8    7.11    3.49
  -4   5  -8   10.06    6.57
   4  -5  -8   10.05    4.47
   4  -5  -8    3.79    3.71
   4   5   8   17.31    6.72
  -4  -5   8    6.50    5.42
  -4  -5   8    0.44    5.59
   4   5   8    0.34    6.84
   4   5   8    6.22    4.48
  -4  -5   8    3.02    3.90
   4  -5  -8    5.62    3.09
   4  -5  -8    6.04    6.04
   5  -5   0  343.52    7.26
   5   5   0  338.85    6.73
  -5   5   0  322.58    8.79
  -5   5   0  330.32    7.18
   5   5   0  340.64    6.49
  -5  -5   0  334.26    7.19
   5   5   0  343.02    8.05
  -5   5   1  270.67    7.82
  -5  -5  -1  266.62    6.30
   5  -5   1  264.42    5.70
  -5  -5  -1  257.57    5.70
   5   5  -1  276.77    7.02
   5   5  -1  266.36    5.92
  -5  -5  -1  256.95    6.72
   5   5  -1  272.84    5.73
   5  -5   1  264.15    5.93
   5   5   1  277.32    7.50
  -5   5  -1  267.59    6.23
  -5   5  -1  265.99    8.35
   5   5   1  271.10    5.41
   5  -5  -1  275.08    6.49
   5   5   1  273.37    5.75
   5   5  -2  109.70    4.02
   5   5  -2  107.24    4.79
   5   5  -2  108.84    5.40
  -5  -5  -2  109.47    3.90
   5  -5   2  108.33    3.96
  -5  -5  -2  112.06    4.49
  -5   5   2  108.02    5.56
   5  -5   2  109.46    4.50
  -5  -5  -2  105.11    4.95
  -5   5  -2  105.84    6.06
   5  -5  -2  108.03    4.33
   5   5   2  108.28    3.76
   5  -5  -2  110.09    3.46
   5   5   2  111.96    5.42
   5   5   2  110.40    3.21
  -5   5  -2  111.47    4.17
   5  -5   3   16.60    2.57
   5   5  -3   19.96    2.75
  -5   5   3   18.32    3.73
  -5  -5  -3   19.18    2.62
   5   5  -3   18.93    4.07
   5   5  -3   14.30    3.06
  -5  -5  -3   16.27    2.99
   5  -5   3   16.18    2.88
  -5  -5  -3   18.52    3.28
  -5   5  -3   16.82    2.84
   5  -5  -3   17.98    2.72
   5   5   3   18.92    3.16
   5   5   3   16.24    3.39
   5  -5  -3   16.61    3.69
  -5  -5   3   20.48    2.80
  -5   5  -3   20.45    4.30
   5   5   3   16.17    1.98
   5   5   3   19.45    2.58
   5  -5  -3   18.20    2.51
   5  -5  -3   19.27    2.28
   5  -5   4   64.55    4.31
  -5   5   4   76.62    6.44
   5  -5   4   72.31    4.91
   5   5  -4   68.20    5.23
  -5  -5  -4   70.84    5.31
  -5  -5  -4   70.02    4.25
   5  -5   4   70.71    5.71
  -5  -5  -4   65.82    5.17
  -5  -5  -4   66.90    5.60
   5   5  -4   76.42    6.83
   5  -5  -4   73.95    4.39
   5  -5  -4   78.11    4.76
   5   5   4   78.24    6.27
   5  -5  -4   70.64    6.23
   5  -5  -4   76.35    3.58
  -5  -5   4   64.48    4.50
   5   5   4   73.20    5.70
   5   5   4   74.10    4.43
   5   5   4   71.16    3.46
  -5  -5   4   68.12    5.28
  -5  -5   4   67.59    4.00
  -5   5  -4   74.68    6.89
   5  -5   5   29.80    5.35
   5  -5   5   27.22    3.91
   5  -5   5   25.89    4.24
  -5   5   5   29.13    4.86
  -5   5   5   26.05    5.64
   5   5  -5   18.63    4.53
  -5  -5  -5   25.61    4.57
   5   5  -5   34.67    6.77
  -5  -5  -5   29.74    5.11
  -5  -5  -5   25.90    3.85
  -5  -5  -5   20.42    4.86
   5   5   5   25.64    3.92
   5   5   5   29.21    5.58
  -5  -5   5   24.27    3.69
   5   5   5   28.39    3.18
   5   5   5   30.78    5.66
  -5  -5   5   26.29    4.18
   5  -5  -5   26.76    4.22
   5  -5  -5   32.15    5.88
  -5  -5   5   29.88    5.02
  -5   5  -5   29.99    6.51
   5  -5  -5   28.68    3.92
   5  -5  -5   28.81    3.32
  -5   5   6    6.88    5.11
  -5  -5  -6    4.11    4.83
   5  -5   6    4.55    4.07
   5   5  -6    7.12    4.53
  -5  -5  -6    7.57    3.44
   5   5  -6    5.93    5.96
  -5   5   6    7.48    5.40
  -5  -5  -6    5.27    4.25
   5  -5   6    4.72    3.64
   5  -5   6    1.07    5.17
  -5  -5  -6   10.27    5.11
  -5   5  -6    3.98    5.70
   5   5   6   10.21    5.42
  -5  -5   6   10.03    4.26
   5   5   6    7.15    2.82
   5   5   6    6.19    5.27
   5  -5  -6    9.37    3.55
   5  -5  -6    9.12    3.93
  -5  -5   6    8.40    3.41
  -5  -5   6    8.97    4.50
   5  -5  -6    7.71    3.03
   5   5   6    2.02    3.73
   5  -5  -6    7.68    5.49
  -5  -5  -7   16.43    5.75
  -5  -5  -7   18.30    4.64
   5  -5   7   14.46    4.36
  -5   5   7   15.11    6.19
  -5   5   7   16.60    6.23
   5   5  -7   29.32    7.55
   5  -5   7    8.38    4.86
   5  -5   7   11.45    6.39
  -5  -5  -7   23.95    3.96
  -5  -5  -7   23.20    5.65
  -5  -5   7   10.39    3.77
   5   5   7   22.38    3.39
  -5   5  -7   19.16    6.59
   5  -5  -7   20.56    4.03
  -5  -5   7   16.58    5.41
  -5  -5   7   15.89    4.97
   5  -5  -7   18.42    3.52
   5  -5  -7   21.97    4.53
   5   5   7   17.48    4.30
   5   5   7   24.22    6.40
   5   5   7   17.49    6.43
   5  -5  -7   16.32    6.37
   5   5  -8    4.81    6.46
   5  -5   8   -5.82    5.28
  -5   5   8    9.23    6.36
  -5  -5  -8   14.48    3.63
  -5  -5  -8   14.52    4.75
  -5  -5  -8    0.80    5.35
  -5   5   8   -9.67    6.25
  -5  -5  -8   13.56    5.31
   5  -5   8   -5.91    6.61
   5  -5   8    7.26    4.55
  -5   5  -8   10.18    6.60
   5  -5  -8    7.94    6.45
   5  -5  -8    6.02    3.14
  -5  -5   8    3.84    3.93
   5   5   8    1.81    6.92
   5   5   8    5.46    4.51
  -5  -5   8   -1.65    5.66
   5   5   8   12.94    6.36
  -5  -5   8    6.80    5.45
   5  -5  -8    9.94    4.44
   5  -5  -8    3.61    3.71
  -6   5   0   65.63    4.95
  -6   5   0   61.61    3.33
  -6  -5   0   61.94    3.58
   6   5   0   62.89    3.10
   6  -5   0   61.94    3.44
   6   5   0   61.44    2.68
   6   5   0   62.37    4.09
   6  -5   0   65.68    2.62
   6   5  -1  146.09    5.43
   6   5  -1  139.31    4.35
  -6   5   1  144.71    6.08
  -6  -5  -1  138.11    4.17
  -6  -5  -1  140.97    5.25
   6  -5   1  132.92    4.08
   6  -5   1  136.52    4.57
  -6   5   1  137.59    4.72
   6   5  -1  140.58    4.04
  -6  -5  -1  139.82    4.79
   6   5   1  141.43    4.23
  -6   5  -1  153.58    6.94
   6   5   1  147.75    3.89
  -6   5  -1  144.30    4.74
   6  -5  -1  138.69    4.80
   6   5   1  145.83    6.00
   6  -5   2   42.94    3.13
  -6  -5  -2   42.96    3.22
   6  -5   2   43.63    3.69
  -6  -5  -2   38.39    3.82
   6   5  -2   39.74    3.80
   6   5  -2   39.18    3.14
  -6   5   2   40.47    4.55
  -6  -5  -2   44.61    4.35
  -6   5  -2   41.13    5.12
   6  -5  -2   40.56    3.42
   6   5   2   38.72    2.48
   6  -5  -2   41.73    2.63
  -6   5  -2   38.91    3.47
   6   5   2   40.77    4.51
   6   5   2   43.86    3.17
   6  -5   3   17.85    2.76
  -6  -5  -3   18.53    3.28
  -6  -5  -3   21.56    3.76
   6  -5   3   15.67    3.19
   6   5  -3   15.74    3.16
   6   5  -3   21.12    2.97
  -6  -5  -3   19.80    2.87
   6   5  -3   21.36    4.26
  -6   5   3   20.05    3.97
   6   5   3   19.18    3.76
   6  -5  -3   21.78    2.45
  -6   5  -3   19.94    3.21
   6   5   3   22.21    2.31
  -6   5  -3   21.78    4.51
   6   5   3   20.89    2.79
   6  -5  -3   19.94    2.95
  -6  -5   3   20.82    3.09
  -6   5   4   16.20    4.60
   6   5  -4   20.67    5.28
  -6  -5  -4   13.44    3.23
   6  -5   4   20.36    3.78
   6   5  -4   12.12    3.79
   6  -5   4   14.80    3.15
  -6  -5  -4   18.88    4.34
  -6  -5  -4   18.41    3.81
   6  -5   4   19.90    4.27
  -6  -5  -4   15.36    3.73
   6   5   4   18.18    4.11
   6  -5  -4   21.58    4.80
   6   5   4   21.54    2.70
   6   5   4   14.15    4.51
   6   5   4   15.10    3.26
  -6  -5   4   12.73    2.78
   6  -5  -4   16.85    3.34
  -6  -5   4   16.68    3.42
  -6   5  -4   20.57    3.87
  -6  -5   4   18.39    3.97
   6  -5  -4   18.72    2.78
   6  -5  -4   19.29    3.20
  -6   5  -4   19.58    5.31
   6  -5   5   12.20    3.90
   6  -5   5    8.35    3.55
  -6  -5  -5   10.70    4.97
   6  -5   5   11.96    5.00
  -6  -5  -5    7.42    3.37
   6   5  -5   18.99    6.23
  -6   5   5   10.04    4.38
  -6   5   5    9.72    5.17
  -6  -5  -5   11.56    4.43
   6   5  -5   13.62    4.40
  -6  -5  -5   12.53    4.49
   6   5   5    7.92    2.82
   6   5   5   13.28    4.99
  -6  -5   5   10.82    3.74
   6   5   5   10.85    3.73
   6  -5  -5   15.21    3.10
   6   5   5   11.05    5.16
   6  -5  -5   13.98    5.24
   6  -5  -5   16.34    3.78
  -6  -5   5   10.06    3.22
  -6   5  -5   14.26    4.32
   6  -5  -5   13.79    3.48
  -6   5  -5   10.10    5.75
  -6  -5   5   16.42    4.59
   6  -5   6   13.00    5.74
  -6   5   6   14.88    5.21
  -6  -5  -6   20.55    4.78
  -6  -5  -6   23.35    3.87
  -6   5   6   17.55    5.71
   6   5  -6   17.87    5.06
  -6  -5  -6   13.44    5.03
   6  -5   6   19.72    4.04
  -6  -5  -6   12.43    5.36
   6  -5   6   14.96    4.34
   6   5  -6   21.19    6.50
  -6  -5   6    9.46    4.04
  -6   5  -6   18.60    6.20
   6   5   6   10.22    5.37
   6   5   6   23.41    5.66
   6  -5  -6   21.45    6.13
   6   5   6   17.16    3.17
   6  -5  -6   17.42    3.74
  -6  -5   6   19.59    4.89
   6   5   6   14.45    4.06
  -6  -5   6   15.93    3.53
   6  -5  -6   21.87    3.35
   6  -5  -6   16.82    3.97
  -6   5   7   -6.58    5.14
   6   5  -7    7.90    6.27
   6  -5   7  -10.74    5.86
   6  -5   7    3.62    4.65
   6  -5   7    4.16    3.96
  -6  -5  -7    4.41    4.97
  -6   5   7    4.70    5.83
  -6  -5  -7    5.93    4.36
  -6  -5  -7    8.14    3.49
  -6  -5  -7   10.20    5.27
  -6  -5   7    3.84    4.96
   6   5   7    0.43    2.93
   6  -5  -7    2.65    3.03
   6  -5  -7    3.70    5.68
   6   5   7    8.40    5.52
   6   5   7   -0.38    5.79
   6   5   7    0.08    3.96
  -6  -5   7    2.10    3.43
  -6   5  -7    9.00    6.15
  -6  -5   7    0.06    4.43
   6  -5  -7    2.44    3.82
   6  -5  -7    4.89    3.48
   6  -5   8   -7.89    4.09
   6   5  -8    2.80    6.50
   6  -5   8   -1.76    5.32
  -6  -5  -8   12.34    3.65
  -6   5   8   -1.56    6.44
  -6  -5  -8   -0.38    5.22
  -6  -5  -8   11.83    5.51
  -6   5   8    6.15    6.33
  -6  -5  -8    8.68    4.72
  -6  -5   8  -10.93    4.58
   6  -5  -8    2.77    3.99
   6  -5  -8    7.75    3.15
   6   5   8    1.12    4.36
  -6   5  -8    4.65    6.31
   6  -5  -8   -1.29    5.84
   6   5   8   -2.46    6.59
  -6  -5   8    0.90    5.80
   6  -5  -8    5.64    3.75
  -6  -5   8   -0.38    3.58
   6   5   8    9.21    5.87
   7  -5   0  227.79    5.18
  -7  -5   0  243.61    5.39
  -7   5   0  227.24    6.24
   7   5   0  226.44    7.09
  -7  -5   0  235.31    5.94
  -7   5   0  224.38    7.87
   7  -5   0  236.24    6.32
  -7  -5   0  220.84    6.25
   7   5   0  235.75    5.41
   7   5   0  233.93    5.78
  -7  -5  -1  149.30    5.18
  -7   5   1  136.17    4.95
  -7  -5  -1  150.87    5.65
   7   5  -1  143.29    4.25
   7  -5   1  148.25    4.41
   7   5  -1  147.90    5.79
  -7   5   1  144.41    6.43
   7   5  -1  139.61    4.58
  -7  -5  -1  149.20    4.46
   7  -5   1  144.77    4.89
   7   5   1  149.53    4.19
  -7   5  -1  146.40    7.09
   7   5   1  149.18    4.61
   7   5   1  146.75    6.38
  -7   5  -1  146.81    5.04
   7  -5  -1  153.91    5.14
  -7  -5  -2   82.31    4.54
   7   5  -2   78.44    4.77
  -7   5   2   82.35    5.40
   7  -5   2   80.29    4.37
   7   5  -2   82.39    3.96
  -7  -5  -2   83.40    3.86
   7  -5   2   81.32    3.84
  -7  -5  -2   80.29    5.07
  -7   5  -2   78.47    4.34
  -7   5  -2   82.84    6.04
   7   5   2   82.35    3.35
   7   5   2   78.19    3.88
   7  -5  -2   79.88    4.32
   7   5   2   80.97    5.32
  -7  -5  -3   81.07    5.05
  -7  -5  -3   82.20    5.75
   7  -5   3   81.90    4.98
   7   5  -3   84.33    6.04
   7   5  -3   71.74    5.14
  -7  -5  -3   74.78    4.22
  -7   5   3   77.99    5.96
   7  -5   3   80.87    4.32
   7   5  -3   72.65    4.38
  -7   5  -3   80.15    5.02
   7  -5  -3   77.05    4.60
   7   5   3   80.52    4.34
   7   5   3   79.02    5.95
   7  -5  -3   76.04    3.58
   7   5   3   77.37    3.61
  -7   5  -3   80.95    6.54
   7  -5   4   37.92    5.10
   7   5  -4   28.15    4.53
   7   5  -4   32.35    5.98
  -7  -5  -4   34.60    4.52
  -7  -5  -4   28.40    3.76
  -7   5   4   32.32    5.45
   7   5  -4   35.57    4.25
   7  -5   4   28.85    4.26
  -7  -5  -4   29.69    4.90
   7  -5   4   27.64    3.78
   7   5   4   36.22    3.41
   7  -5  -4   35.14    5.91
   7   5   4   27.83    5.05
   7  -5  -4   35.19    4.42
  -7   5  -4   34.05    4.57
  -7   5  -4   31.64    3.87
   7  -5  -4   32.42    3.34
  -7  -5   4   31.05    4.04
   7   5   4   30.32    3.83
  -7   5  -4   37.71    6.23
   7  -5   5   27.73    5.74
   7   5  -5   29.55    6.73
  -7  -5  -5   34.12    5.31
  -7  -5  -5   22.66    4.85
   7   5  -5   25.97    5.13
  -7  -5  -5   25.15    5.83
   7  -5   5   21.20    4.51
  -7  -5  -5   18.69    3.90
  -7   5   5   27.46    6.23
   7  -5   5   19.92    3.80
   7   5   5   29.12    5.55
  -7   5  -5   31.12    5.05
  -7   5  -5   26.09    6.56
  -7  -5   5   22.58    4.21
   7  -5  -5   32.93    4.65
   7   5   5   29.47    4.33
   7  -5  -5   30.75    3.59
   7   5   5   26.92    3.44
  -7  -5   5   23.15    5.00
   7   5   5   25.16    5.81
  -7  -5   5   20.74    3.55
   7  -5  -5   29.99    6.32
   7   5  -6   19.17    6.46
  -7  -5  -6   15.66    5.58
  -7  -5  -6   14.46    3.59
  -7  -5  -6   15.06    4.91
   7   5  -6   16.41    5.00
  -7   5   6   12.53    5.58
   7  -5   6    9.09    4.21
   7  -5   6    5.01    5.58
  -7  -5  -6   20.34    4.92
   7  -5   6   11.42    3.63
  -7   5   6   15.79    5.11
   7   5   6   25.10    5.60
  -7   5  -6   16.30    4.51
   7   5   6   10.03    5.52
   7   5   6   16.31    3.09
  -7   5  -6   12.02    5.95
  -7  -5   6   18.66    4.25
   7  -5  -6   20.08    4.08
  -7  -5   6   11.18    4.87
   7  -5  -6   17.59    3.63
   7   5   6   12.70    4.01
   7  -5  -6   21.89    3.32
   7  -5  -6   12.87    5.60
  -7  -5   6   13.00    3.59
   7  -5   7    6.43    4.94
   7  -5   7    6.95    4.17
   7  -5   7   -2.05    6.28
  -7  -5  -7   10.23    5.25
   7   5  -7   17.44    7.02
   7   5  -7   10.47    5.57
  -7   5   7   11.35    5.86
  -7   5   7    8.15    5.96
  -7  -5  -7   14.89    3.76
  -7  -5  -7   18.02    5.11
  -7  -5  -7   16.05    5.89
   7   5   7   13.76    4.50
  -7  -5   7    7.34    3.68
  -7   5  -7    7.54    6.12
   7  -5  -7    7.51    6.28
   7   5   7    8.34    6.54
   7  -5  -7   15.36    3.54
  -7  -5   7   10.03    4.89
   7   5   7   10.96    3.37
   7   5   7   22.48    6.14
   7  -5  -7   12.62    3.71
  -7   5  -7   10.79    4.62
  -7  -5   7   14.23    5.68
   7  -5  -7   14.92    4.19
  -7  -5  -8   17.11    5.86
   7   5  -8    5.32    6.89
  -7   5   8   -4.22    6.24
  -7  -5  -8    4.37    5.59
   7  -5   8   -2.73    5.26
  -7  -5  -8    8.23    3.58
  -7  -5  -8    7.99    4.48
  -7   5   8    0.34    5.86
   7  -5   8    1.56    4.39
   7  -5  -8   -1.22    6.03
  -7   5  -8    9.50    6.60
   7  -5  -8    8.37    3.76
  -7  -5   8    0.34    5.13
   7  -5  -8    1.33    3.72
   7   5   8    2.24    4.38
   7  -5  -8    4.49    3.20
   7   5   8    9.03    5.75
   7   5   8   -7.64    6.43
  -7  -5   8    0.67    3.80
  -7  -5   8    4.00    5.90
  -8  -5   0   83.47    4.12
   8  -5   0   81.41    3.39
  -8  -5   0   81.46    4.57
   8   5   0   80.25    3.93
  -8   5   0   80.07    4.24
   8   5   0   79.65    5.04
   8  -5   0   77.88    4.27
   8   5   0   82.09    3.42
  -8   5   0   79.85    6.12
   8   5  -1   43.73    2.94
  -8  -5  -1   46.48    4.50
  -8  -5  -1   45.83    3.97
   8  -5   1   45.34    3.15
  -8  -5  -1   41.92    3.45
   8   5  -1   41.56    4.32
  -8   5   1   42.13    3.70
   8   5  -1   43.03    3.31
  -8   5   1   43.51    5.08
   8  -5   1   46.39    3.75
   8   5   1   46.41    2.95
   8   5   1   50.58    5.19
   8  -5  -1   41.11    3.78
   8  -5  -1   46.21    2.70
   8   5   1   43.13    3.43
  -8   5  -1   44.84    3.86
  -8   5  -1   49.51    5.90
  -8   5   2   25.68    4.26
  -8   5   2   21.25    3.09
   8   5  -2   24.97    2.78
  -8  -5  -2   20.69    3.95
   8  -5   2   26.34    3.46
   8   5  -2   22.65    3.60
  -8  -5  -2   23.52    3.60
   8  -5   2   31.01    3.17
   8   5  -2   25.03    3.10
  -8  -5  -2   24.79    3.17
   8   5   2   21.57    4.07
   8   5   2   23.58    2.59
  -8   5  -2   21.17    3.37
   8   5   2   21.95    2.95
  -8   5  -2   28.76    4.89
   8  -5  -2   26.37    3.28
   8   5  -3   21.66    3.40
   8   5  -3   26.63    4.74
  -8  -5  -3   22.33    4.06
   8   5  -3   23.33    4.04
  -8  -5  -3   23.40    3.53
  -8  -5  -3   25.24    4.44
   8  -5   3   24.03    3.87
   8  -5   3   22.36    3.36
  -8   5   3   29.74    5.28
  -8   5  -3   22.89    5.30
  -8   5  -3   27.37    4.08
   8  -5  -3   24.31    3.67
   8   5   3   26.23    3.49
   8   5   3   29.02    5.01
   8   5   3   27.82    2.91
   8   5  -4   22.21    4.62
  -8   5   4   21.40    5.50
   8  -5   4   23.02    4.95
  -8  -5  -4   24.12    5.13
   8  -5   4   18.58    4.19
  -8  -5  -4   21.72    4.37
  -8  -5  -4   19.52    3.78
   8  -5   4   20.56    3.77
   8   5  -4   21.48    4.05
   8   5  -4   23.79    5.76
  -8   5  -4   20.92    3.93
   8  -5  -4   26.79    4.02
  -8  -5   4   15.91    3.69
   8   5   4   18.84    3.07
  -8   5  -4   26.09    5.91
   8  -5  -4   23.11    5.45
   8   5   4   19.88    5.03
   8   5   4   23.60    3.88
  -8   5  -4   21.36    4.49
   8  -5   5   11.44    4.18
  -8  -5  -5    8.84    4.68
  -8  -5  -5   13.43    5.65
   8  -5   5    8.63    3.71
  -8   5   5    8.61    4.47
  -8  -5  -5   10.11    3.54
   8   5  -5   11.30    4.73
   8  -5   5    6.17    5.27
   8   5  -5   14.42    6.11
  -8   5   5    7.89    5.47
  -8   5  -5   11.60    5.90
  -8   5  -5    9.26    4.79
  -8  -5   5    4.31    2.91
   8   5   5   13.10    5.30
   8  -5  -5    5.73    3.74
   8   5   5    5.98    3.82
  -8   5  -5    6.07    4.08
   8  -5  -5   10.01    5.48
  -8  -5   5    6.73    3.94
   8   5   5    9.47    3.01
  -8  -5   5    0.12    4.25
   8  -5  -5   11.52    3.17
  -8   5   6    2.33    5.23
  -8  -5  -6    1.84    4.07
   8   5  -6    4.94    4.60
  -8  -5  -6    5.98    5.12
  -8   5   6    4.94    4.71
   8  -5   6    3.09    3.92
  -8  -5  -6    3.07    3.36
   8   5  -6    4.07    5.63
   8  -5   6   -6.24    5.33
   8  -5   6    4.75    3.56
  -8  -5  -6    6.93    4.62
   8  -5  -6    2.88    2.91
  -8  -5   6    0.52    4.44
   8  -5  -6    3.04    5.34
  -8   5  -6   -0.07    5.05
   8   5   6   -0.52    5.47
   8  -5  -6    4.95    3.65
   8   5   6    5.25    3.72
  -8  -5   6   -0.67    2.93
   8   5   6    5.10    4.55
   8   5   6    6.02    2.95
  -8   5  -6    4.09    4.49
  -8  -5   6    9.32    4.28
   8  -5   7    3.86    4.01
  -8   5   7   -1.16    5.36
   8  -5   7    2.88    4.71
  -8  -5  -7    4.62    3.57
   8  -5   7  -12.01    6.19
   8   5  -7    2.59    6.19
   8   5  -7   10.42    5.85
  -8  -5  -7   10.50    5.90
  -8   5   7    5.09    6.03
  -8  -5  -7    5.95    4.91
  -8  -5  -7   14.32    5.11
   8   5   7    4.40    4.29
   8   5   7    2.08    6.21
  -8  -5   7   10.12    5.31
   8   5   7    8.81    3.27
   8  -5  -7    5.79    6.07
   8  -5  -7    2.75    3.67
  -8  -5   7    7.04    3.60
  -8   5  -7    8.80    4.67
  -8   5  -7    5.05    5.94
   8  -5  -7    7.86    3.29
   8   5   7    8.23    5.35
  -8  -5   7    5.52    4.82
  -8  -5  -8   14.67    5.09
  -8  -5  -8    9.17    3.73
  -8  -5  -8    9.96    5.87
   8  -5   8  -15.25    6.94
   8  -5   8    3.38    5.23
  -8   5   8    4.05    6.27
  -8   5   8   -9.11    6.14
  -8  -5  -8   -5.24    5.56
   8  -5   8   -2.02    4.24
   8   5  -8   -2.58    6.48
   8   5   8   -7.53    6.72
   8   5   8   12.40    6.04
  -8  -5   8  -10.79    4.79
   8  -5  -8    0.71    3.91
  -8  -5   8   -0.22    3.84
   8  -5  -8    3.11    6.47
   8   5   8   -0.59    4.35
   8  -5  -8    1.75    3.24
  -8  -5   8    1.96    5.96
  -8   5  -8    7.79    6.45
   9   5   0   72.68    4.11
   9  -5   0   74.11    3.55
  -9  -5   0   81.66    4.97
  -9   5   0   75.62    6.49
  -9  -5   0   75.95    4.40
   9   5   0   75.20    3.55
  -9   5   0   69.06    4.37
   9   5   0   70.56    5.24
   9  -5   1   66.86    4.35
  -9   5   1   60.44    4.14
   9  -5   1   63.88    3.65
   9   5  -1   60.17    3.40
  -9  -5  -1   64.46    4.63
  -9   5   1   62.26    5.96
   9   5  -1   58.03    5.01
  -9  -5  -1   65.25    3.92
   9   5  -1   58.58    3.87
  -9  -5  -1   62.05    5.24
   9   5   1   64.72    3.50
   9   5   1   61.60    5.91
   9   5   1   68.20    4.14
   9  -5  -1   71.26    3.28
   9  -5  -1   65.62    4.39
  -9   5  -1   71.29    6.53
  -9   5  -1   61.98    4.55
   9   5  -2   83.21    4.15
  -9  -5  -2   87.49    4.46
   9   5  -2   78.94    5.53
   9  -5   2   86.74    5.24
  -9  -5  -2   89.60    6.17
   9   5  -2   81.90    4.63
  -9  -5  -2   82.77    5.38
  -9   5   2   82.84    6.18
   9  -5   2   82.53    4.44
  -9   5   2   84.02    5.00
  -9   5  -2   89.47    6.93
  -9   5  -2   86.58    5.28
   9   5   2   81.29    4.55
   9   5   2   80.51    3.96
   9   5   2   79.03    6.50
   9  -5  -2   83.60    5.03
  -9  -5  -3   81.11    4.73
  -9   5   3   79.80    5.35
  -9  -5  -3   81.96    6.68
   9  -5   3   81.76    4.87
   9   5  -3   74.44    5.96
  -9  -5  -3   79.21    5.85
   9   5  -3   79.48    5.20
   9  -5   3   80.65    5.79
  -9   5   3   84.36    6.84
   9   5   3   78.60    6.93
  -9   5  -3   82.17    5.91
   9   5   3   82.37    5.06
   9   5   3   78.10    4.12
  -9   5  -3   79.21    7.20
   9  -5  -3   81.56    5.38
   9  -5   4   29.73    4.61
  -9  -5  -4   29.76    4.20
   9   5  -4   31.32    5.23
   9   5  -4   33.97    4.72
  -9  -5  -4   32.86    5.77
  -9   5   4   34.84    6.10
   9  -5   4   32.67    4.19
  -9  -5  -4   27.17    4.92
   9   5  -4   34.92    6.07
  -9   5  -4   28.25    6.22
   9  -5  -4   34.65    4.63
   9   5   4   31.02    5.77
  -9  -5   4   33.22    4.40
  -9   5  -4   38.80    5.20
  -9   5  -4   35.93    4.58
   9   5   4   35.72    3.87
   9   5   4   36.94    4.37
   9   5  -5   14.56    4.83
  -9  -5  -5   23.41    5.17
   9   5  -5   19.37    5.99
  -9  -5  -5   18.31    5.87
   9  -5   5   18.83    4.03
   9  -5   5   18.69    4.45
   9  -5   5   15.38    5.42
  -9   5   5   16.97    5.65
  -9  -5  -5   17.09    3.88
   9   5   5   15.46    4.02
   9   5   5   16.37    3.27
  -9   5  -5   21.07    4.41
   9   5   5   18.27    5.44
  -9  -5   5   15.16    4.79
   9  -5  -5   15.84    5.57
   9  -5  -5   15.85    4.03
  -9  -5   5   12.42    4.12
  -9   5  -5   22.11    5.99
  -9   5  -5   21.50    5.02
   9   5  -6   22.84    6.82
   9  -5   6   18.34    4.60
   9  -5   6    9.72    6.02
  -9   5   6   22.36    6.45
  -9  -5  -6   13.84    3.95
   9   5  -6   19.75    5.56
  -9   5   6   17.55    5.26
  -9  -5  -6   23.96    5.57
  -9  -5  -6   18.44    5.04
  -9  -5  -6   28.72    6.46
   9  -5   6   15.87    4.14
   9  -5  -6   23.60    4.39
  -9  -5   6   14.34    4.55
   9   5   6   13.43    3.22
  -9  -5   6   16.23    3.67
  -9  -5   6   21.57    5.80
  -9   5  -6   14.53    6.08
  -9   5  -6   13.77    4.43
   9  -5  -6   21.53    6.55
   9   5   6   23.76    4.43
   9   5   6   19.90    5.22
   9   5   6   10.24    5.67
  -9   5  -6   16.30    5.12
   9   5  -7    5.71    6.48
   9  -5   7    4.41    4.17
   9   5  -7    4.69    5.83
  -9  -5  -7   15.41    5.57
   9  -5   7    6.44    4.90
  -9  -5  -7   11.00    3.90
  -9  -5  -7    6.43    6.36
   9  -5   7   -8.29    6.30
  -9   5   7    2.62    5.94
  -9   5   7    0.19    5.43
   9   5   7   11.98    4.45
  -9   5  -7    9.15    5.19
  -9   5  -7    7.33    5.80
   9   5   7   11.35    3.39
   9   5   7    4.71    6.57
  -9  -5   7    2.01    4.49
  -9  -5   7    5.86    3.52
  -9  -5   7    7.87    5.50
   9  -5  -7    3.10    3.70
   9  -5  -7   -1.22    5.83
 -10  -5   0   38.93    4.36
 -10  -5   0   39.90    5.00
  10   5   0   37.09    3.97
 -10   5   0   39.38    6.65
 -10   5   0   35.88    4.36
  10   5   0   38.85    3.31
  10  -5   0   36.95    3.92
  10  -5   0   39.75    3.42
  10   5   0   34.90    4.66
 -10  -5  -1   17.00    3.79
  10   5  -1   15.26    3.02
  10   5  -1   19.96    4.16
 -10   5   1   23.61    5.33
 -10   5   1   20.14    3.28
  10   5  -1   19.24    2.90
  10  -5   1   21.38    3.55
  10  -5   1   16.75    2.99
 -10  -5  -1   20.45    4.31
 -10  -5  -1   18.70    3.42
  10  -5  -1   16.34    3.31
  10  -5  -1   14.70    2.66
  10   5   1   20.63    4.87
  10   5   1   19.17    2.85
  10   5   1   20.62    3.42
 -10   5  -1   16.65    3.50
 -10   5  -1   18.64    5.24
 -10  -5   1   20.84    3.70
 -10   5   2   40.19    5.87
 -10   5   2   41.70    4.66
  10  -5   2   39.51    4.06
  10   5  -2   33.06    3.63
  10  -5   2   44.33    4.86
 -10  -5  -2   41.79    5.30
 -10  -5  -2   37.50    5.15
  10   5  -2   34.38    4.77
  10   5  -2   37.58    4.34
 -10  -5  -2   40.34    4.32
  10   5   2   35.74    5.73
 -10   5  -2   42.08    6.41
  10   5   2   42.82    4.43
 -10   5  -2   40.84    5.18
  10  -5  -2   43.01    4.93
  10   5   2   39.87    3.64
  10   5  -3    9.18    3.74
  10  -5   3   14.32    3.56
 -10  -5  -3   13.97    5.09
 -10  -5  -3   11.92    4.49
 -10  -5  -3   11.11    3.73
 -10   5   3   13.06    5.01
  10   5  -3    9.11    4.16
  10  -5   3   11.72    4.25
 -10   5   3   10.78    3.68
 -10   5  -3   16.34    5.40
  10   5   3   10.15    3.04
 -10   5  -3   15.51    4.34
  10   5   3   12.01    4.89
  10  -5  -3   11.92    3.70
  10   5   3   10.61    3.51
  10   5  -4   16.57    4.84
 -10   5   4   15.10    5.52
 -10  -5  -4   15.76    5.18
  10  -5   4   18.18    4.79
  10   5  -4   18.74    4.61
  10   5  -4   19.53    5.56
  10  -5   4   15.19    3.91
 -10  -5  -4   11.70    4.00
 -10  -5  -4   19.14    5.78
 -10   5   4   15.47    4.37
 -10   5  -4   17.00    5.63
  10  -5  -4   17.59    4.34
 -10  -5   4   11.45    3.89
  10   5   4    8.34    5.47
  10   5   4   13.86    4.01
 -10   5  -4   20.63    5.05
  10   5   4   14.82    3.33
 -10   5  -4   15.27    4.30
 -10  -5  -5    5.62    3.45
  10  -5   5    4.11    5.06
 -10  -5  -5   12.63    5.65
  10  -5   5   12.00    3.67
 -10   5   5   12.40    5.39
  10   5  -5   10.98    5.84
  10   5  -5   10.36    4.86
  10  -5   5    8.16    3.97
 -10  -5  -5   17.45    5.24
 -10  -5   5   13.35    4.75
  10  -5  -5    7.09    5.38
  10   5   5    6.72    5.30
 -10   5  -5   10.46    4.14
  10   5   5   11.26    3.91
 -10   5  -5    3.00    4.67
  10   5   5    8.00    3.13
 -10  -5   5   12.83    4.04
  10  -5  -5   13.10    4.14
 -10   5  -5   13.78    5.51
  10  -5   6    7.28    4.44
  10   5  -6    5.77    5.31
 -10  -5  -6    9.57    3.80
  10  -5   6    9.20    4.04
  10   5  -6   10.20    6.32
 -10   5   6    6.19    5.62
 -10  -5  -6   11.63    5.41
  10  -5   6    1.74    5.73
 -10  -5  -6   16.53    6.52
 -10   5  -6    2.17    4.95
  10   5   6    6.99    6.04
 -10  -5   6    7.64    4.38
 -10  -5   6    9.45    5.25
  10  -5  -6    5.43    5.96
 -10  -5   6    7.44    3.12
  10   5   6   10.67    3.39
 -10   5  -6    3.79    4.36
  10   5   6    4.34    4.14
  10  -5  -6    6.32    4.02
 -10   5  -6   10.19    5.80
 -10   5   7    9.17    6.32
  10  -5   7    8.94    4.94
 -10   5   7   -4.82    5.35
  10   5  -7    1.68    6.32
 -10  -5  -7   10.61    5.58
  10   5  -7    7.02    5.75
 -10  -5  -7    7.67    3.85
  10  -5   7    5.26    4.32
 -10  -5  -7    6.37    6.33
  10   5   7    3.28    6.80
  10   5   7    6.15    3.44
 -10   5  -7    2.94    4.12
  10  -5  -7    1.91    3.93
 -10  -5   7   10.59    5.81
 -10  -5   7    3.81    3.54
  10  -5  -7   -4.19    5.83
 -10   5  -7    7.42    5.77
  10   5   7    4.39    4.22
 -10   5  -7    9.26    5.29
 -10  -5   7    2.75    4.58
 -11   5   0   12.07    3.40
 -11  -5   0   16.10    4.29
  11  -5   0   12.38    2.92
 -11  -5   0   10.17    3.77
  11  -5   0   13.88    3.21
  11   5   0   10.60    3.34
  11   5   0    7.84    2.76
  11   5   0    9.54    4.18
  11   5  -1   26.98    3.39
 -11   5   1   33.39    6.11
  11  -5   1   34.47    3.68
 -11  -5  -1   30.20    4.38
  11  -5   1   30.60    3.96
 -11   5   1   28.84    4.08
 -11  -5  -1   33.58    4.97
  11   5  -1   31.71    3.82
  11   5  -1   31.47    5.01
 -11  -5  -1   27.52    4.00
  11   5   1   30.58    5.08
 -11  -5   1   39.60    5.11
  11  -5  -1   33.84    3.47
 -11   5  -1   35.51    4.43
  11   5   1   33.13    3.63
  11   5   1   35.95    4.08
  11  -5   2   42.27    4.31
 -11   5   2   35.31    5.80
  11   5  -2   39.51    5.28
  11   5  -2   33.61    4.08
  11   5  -2   37.85    4.04
  11  -5   2   38.61    4.59
 -11  -5  -2   36.93    4.41
 -11   5   2   41.01    4.84
 -11  -5  -2   43.40    5.71
 -11  -5  -2   39.04    5.06
  11   5   2   37.37    3.73
  11   5   2   44.49    4.79
 -11   5  -2   40.15    5.58
  11  -5  -2   34.62    3.43
  11   5   2   38.09    6.06
  11  -5  -2   42.52    5.14
 -11   5  -2   47.33    6.55
 -11  -5  -3   20.49    5.18
  11   5  -3   22.29    4.95
  11  -5   3   18.38    4.00
 -11  -5  -3   10.30    3.92
 -11  -5  -3   30.82    6.11
  11   5  -3   20.25    4.30
  11  -5   3   21.15    4.77
 -11   5   3   20.17    5.33
 -11   5   3   17.81    4.30
  11  -5  -3   23.84    4.57
  11   5   3   13.97    3.82
 -11   5  -3   13.40    4.78
  11   5   3   18.09    3.41
 -11   5  -3   21.51    5.66
  11   5   3   16.29    5.48
  11  -5   4   34.33    5.13
 -11  -5  -4   23.94    4.36
 -11   5   4   31.60    4.83
  11   5  -4   35.46    5.14
 -11  -5  -4   33.34    6.35
  11   5  -4   29.03    5.77
 -11   5   4   30.00    6.05
  11   5  -4   31.06    5.49
 -11  -5  -4   23.85    5.40
  11  -5   4   25.39    4.05
 -11   5  -4   29.39    4.86
  11  -5  -4   32.33    4.71
  11   5   4   27.64    6.09
 -11   5  -4   31.88    5.43
  11   5   4   26.78    4.25
  11   5   4   31.51    3.82
 -11   5  -4   35.62    6.46
 -11  -5  -5   18.75    6.28
  11  -5   5   13.76    5.42
  11   5  -5   17.21    5.96
 -11   5   5   17.27    5.73
  11   5  -5   21.67    4.99
 -11  -5  -5   19.06    5.64
  11   5  -5   19.20    5.33
  11  -5   5   16.20    4.15
  11  -5   5   13.04    4.82
 -11   5   5   24.08    4.94
 -11  -5  -5   16.11    3.95
  11   5   5   16.61    3.48
  11   5   5   20.55    4.26
 -11   5  -5   24.78    5.94
 -11   5  -5   18.53    4.83
 -11  -5   5   22.16    4.23
 -11   5  -5   12.30    5.29
 -11  -5   5   19.27    5.13
  11   5   5   13.92    5.96
  11  -5  -5   18.62    4.46
  11  -5   6   10.66    4.20
 -11  -5  -6   17.34    4.17
 -11   5   6   12.28    6.08
  11   5  -6   17.18    6.56
 -11  -5  -6   18.61    5.96
  11  -5   6   12.63    5.23
  11   5  -6   14.52    5.94
 -11   5   6   14.92    4.99
  11  -5   6   -1.27    5.80
 -11  -5  -6   16.59    6.68
  11  -5  -6   13.01    6.40
 -11   5  -6    8.84    4.84
 -11  -5   6   11.38    5.50
  11   5   6   20.76    4.68
 -11  -5   6   10.19    4.80
  11   5   6   13.68    3.58
  11   5   6    3.03    6.19
 -11  -5   6    7.50    3.12
  11  -5  -6   11.88    4.60
 -11   5  -6   18.40    5.93
 -11   5  -6   12.76    5.48
  11  -5   7  -11.49    6.05
  11  -5   7    2.92    5.47
 -11   5   7    0.96    5.96
  11   5  -7   13.63    6.98
 -11  -5  -7    3.04    3.93
  11  -5   7    8.83    4.50
  11   5  -7   13.99    6.30
 -11   5   7    7.50    4.96
 -11  -5  -7   18.18    6.79
 -11  -5  -7    8.76    5.75
 -11   5  -7    5.17    4.42
 -11  -5   7    5.39    4.77
 -11  -5   7   -0.48    5.42
  11   5   7    1.02    3.28
  11  -5  -7    4.17    4.45
 -11  -5   7    3.83    3.64
  11  -5  -7   -3.34    6.06
  11   5   7    6.33    4.55
  11   5   7    4.86    6.82
 -11   5  -7    3.96    5.37
 -11   5  -7    8.05    5.67
 -12  -5   0    9.69    4.57
  12  -5   0   12.10    3.19
 -12  -5   0    6.70    4.13
  12  -5   0   10.94    3.46
 -12   5   0    9.34    3.67
  12   5   0    9.51    3.64
  12   5   0    5.76    4.53
  12   5   0   11.97    3.05
 -12   5   1    6.28    5.51
 -12  -5  -1   10.31    4.21
  12  -5   1   12.09    3.81
 -12   5   1    4.74    3.63
 -12  -5  -1   12.05    5.04
  12   5  -1    7.20    3.12
  12   5  -1    5.28    3.43
  12   5  -1   11.61    4.79
  12  -5   1    5.44    3.29
 -12   5  -1   12.60    4.13
  12  -5  -1    9.66    3.31
  12   5   1    8.83    4.67
  12  -5  -1    8.98    3.06
  12   5   1    8.30    3.53
  12   5   1   10.63    3.15
 -12  -5   1    7.25    4.26
  12  -5   2    4.67    4.12
 -12   5   2    6.60    3.78
  12   5  -2    9.57    3.97
  12  -5   2    9.29    3.51
  12   5  -2    7.51    4.49
 -12  -5  -2    8.92    4.91
 -12  -5  -2    6.86    5.32
  12   5  -2    6.20    3.30
 -12  -5  -2    6.78    4.04
 -12   5   2    6.77    5.18
 -12   5  -2    6.89    4.39
  12   5   2    4.78    3.25
  12   5   2    6.84    5.55
  12   5   2    4.33    3.87
  12  -5  -2    7.27    2.87
  12  -5  -2   11.74    4.21
  12   5  -3    4.58    4.45
  12  -5   3    4.77    3.49
  12   5  -3    7.30    4.18
  12  -5   3    5.60    4.26
 -12  -5  -3    8.22    3.85
 -12  -5  -3   10.43    5.95
 -12  -5  -3   10.93    5.46
 -12   5   3    7.03    5.11
 -12   5   3    4.74    3.96
  12  -5  -3    2.02    4.20
  12   5   3    3.20    5.46
  12   5   3    6.24    3.29
 -12   5  -3   10.06    4.73
  12   5   3    6.55    3.93
  12  -5  -3    6.99    2.74
 -12   5   4   12.24    4.34
  12  -5   4    8.44    4.49
  12   5  -4   13.74    4.88
  12  -5   4   17.26    3.89
 -12  -5  -4   13.35    5.92
 -12   5   4    5.58    5.16
 -12  -5  -4   12.43    5.45
  12   5  -4   11.48    4.47
 -12  -5  -4   11.23    3.88
  12   5   4    9.84    3.12
  12  -5  -4   12.08    4.21
  12   5   4    8.16    5.41
 -12   5  -4    8.45    5.01
 -12   5  -4   18.49    4.73
  12   5   4    9.34    3.80
 -12   5  -4   13.23    5.01
  12  -5   5    6.34    3.85
 -12   5   5   11.07    4.51
 -12  -5  -5    8.79    4.12
  12   5  -5    9.16    5.19
  12  -5   5    6.20    4.79
  12   5  -5    4.41    5.51
 -12  -5  -5   11.60    6.51
 -12  -5  -5    8.53    5.79
 -12   5   5    9.94    5.61
  12   5  -5    3.60    4.83
 -12  -5   5    6.13    3.97
 -12   5  -5    6.26    5.25
  12  -5  -5    5.58    4.14
  12   5   5    2.67    5.72
 -12   5  -5    2.50    4.79
 -12  -5   5    6.79    4.85
 -12   5  -5   15.57    5.52
  12   5   5   12.59    3.42
  12   5   5    9.07    4.04
  12  -5   6    2.97    6.15
 -12   5   6    3.06    5.71
 -12   5   6   17.37    4.79
  12  -5   6    0.80    5.22
  12   5  -6    5.49    6.15
  12   5  -6    7.60    5.78
  12  -5   6    5.84    3.84
 -12  -5  -6    4.35    3.96
 -12  -5  -6   12.41    6.19
 -12  -5  -6   13.52    6.89
 -12   5  -6    8.56    5.13
 -12  -5   6   10.91    3.44
  12   5   6    6.20    6.70
  12  -5  -6    6.42    4.24
 -12  -5   6    7.35    4.67
  12   5   6    8.17    3.54
 -12   5  -6   12.01    5.71
  12   5   6   11.77    4.35
 -12  -5   6    8.07    5.37
 -12   5  -6    2.85    5.47
  12  -5   7  -12.39    6.33
 -12   5   7    7.32    6.47
  12   5  -7    5.05    5.98
 -12  -5  -7   21.28    7.30
 -12  -5  -7   13.04    6.41
 -12  -5  -7   11.27    4.36
  12   5  -7    9.40    6.88
  12  -5   7    5.37    4.38
 -12   5   7    4.31    4.99
  12  -5   7    3.98    5.67
  12   5   7    7.54    4.62
 -12  -5   7    3.26    4.98
 -12  -5   7    7.93    5.78
 -12   5  -7   -0.83    4.34
  12  -5  -7    3.19    6.66
  12   5   7    6.36    3.65
 -12   5  -7    9.40    5.95
 -12  -5   7   10.04    3.83
  12  -5  -7    1.39    4.47
  12   5   7    5.40    7.16
  13   5   0    1.40    3.19
 -13  -5   0    3.98    4.45
  13  -5   0    5.29    3.30
  13  -5   0    3.68    3.58
  13   5   0    6.80    4.94
 -13   5   0    5.07    3.94
  13   5   0    0.89    3.72
 -13  -5   0    7.06    5.02
  13   5  -1   15.12    5.23
  13   5  -1    8.33    3.95
 -13  -5  -1   10.41    4.66
  13  -5   1    7.18    3.50
  13  -5   1   14.21    4.13
  13   5  -1    6.14    3.46
 -13   5   1   11.91    4.17
 -13  -5  -1   11.96    5.51
  13   5   1   15.36    3.52
  13   5   1   15.84    5.50
  13  -5  -1   10.03    3.23
 -13   5  -1   14.23    4.37
  13   5   1   17.14    3.99
 -13  -5   1    8.88    4.68
  13   5  -2   14.07    4.26
  13   5  -2    5.56    4.77
 -13  -5  -2    8.28    5.15
 -13   5   2    3.05    5.14
  13   5  -2    5.84    3.47
  13  -5   2   10.37    4.07
 -13  -5  -2   10.94    5.65
 -13  -5  -2    5.52    4.13
 -13   5   2    5.95    4.18
  13  -5   2    2.94    3.37
  13   5   2   11.43    3.31
  13  -5  -2    4.30    2.91
 -13   5  -2    4.62    4.25
  13   5   2    5.78    5.74
  13   5   2    6.50    4.04
 -13   5   3    9.63    4.29
  13  -5   3   13.39    4.35
  13   5  -3   16.41    3.76
 -13   5   3    4.82    5.11
  13  -5   3   13.55    3.67
 -13  -5  -3    7.81    5.54
 -13  -5  -3    8.85    5.44
  13   5  -3   14.58    4.82
 -13  -5  -3    8.13    3.98
  13   5  -3   14.53    4.36
 -13   5  -3   10.68    4.59
  13   5   3   12.40    3.40
  13   5   3   12.50    4.04
  13  -5  -3    4.41    4.15
  13  -5  -3   12.21    2.93
  13   5   3   10.57    5.80
  13   5  -4   12.51    4.78
 -13  -5  -4    3.58    5.38
 -13  -5  -4   14.78    6.23
  13   5  -4    6.56    4.73
  13  -5   4    7.68    4.56
 -13  -5  -4    4.75    3.81
  13  -5   4    5.02    3.67
 -13   5   4    3.26    4.17
 -13   5   4    3.54    5.00
 -13   5  -4   13.84    5.06
 -13   5  -4    3.63    5.08
 -13   5  -4   11.02    4.87
  13  -5  -4    5.43    4.30
  13   5   4    9.37    3.84
  13   5   4    8.74    3.35
  13   5   4    4.10    5.59
 -13  -5  -5   11.88    6.23
 -13   5   5    5.17    4.40
 -13  -5  -5    3.03    6.28
  13   5  -5   10.41    5.31
 -13  -5  -5    8.76    4.27
  13  -5   5   16.74    4.36
  13  -5   5    1.47    4.83
  13  -5   5    1.10    5.42
  13   5  -5    5.88    5.31
 -13   5   5    4.92    5.55
  13   5   5   10.36    3.43
 -13   5  -5    7.41    5.38
 -13  -5   5   10.88    4.21
  13  -5  -5    6.64    4.43
  13   5   5    5.75    3.97
 -13   5  -5    5.63    5.46
  13   5   5    2.91    6.10
 -13   5   6    1.49    4.72
 -13  -5  -6   -1.17    4.00
  13   5  -6    0.76    5.51
  13  -5   6   -0.24    3.86
  13  -5   6   -0.92    5.23
  13  -5   6   -1.60    6.03
 -13  -5  -6    6.04    6.78
 -13   5   6    0.31    5.61
 -13  -5  -6    5.92    6.38
 -13  -5   6    4.09    5.41
 -13   5  -6    6.58    5.70
  13   5   6    3.62    3.54
  13   5   6    1.40    4.20
  13  -5  -6   -0.37    4.28
 -13   5  -6    2.12    5.41
  13   5   6   -3.09    6.43
 -13  -5   6    2.89    4.65
 -14  -5   0    1.25    4.50
  14   5   0    6.21    3.24
  14   5   0   12.32    4.75
 -14  -5   0   -3.36    4.82
  14  -5   0   -1.20    3.48
 -14   5   0    4.01    4.01
  14   5   0    4.32    3.73
  14  -5   0    5.49    3.29
  14  -5   1    5.17    3.28
  14  -5   1    5.25    3.78
  14   5  -1    3.92    4.51
 -14   5   1   -0.35    3.86
  14   5  -1    1.17    3.41
 -14  -5  -1    5.92    4.81
 -14  -5  -1    1.35    5.22
  14   5  -1    6.11    3.75
  14   5   1    7.29    3.74
 -14  -5   1    3.95    4.57
  14  -5  -1    7.28    3.06
  14   5   1    2.64    3.21
  14  -5  -1    5.92    3.31
 -14   5  -1    0.75    4.09
  14   5   1    7.00    5.15
  14   5  -2    4.33    3.53
 -14  -5  -2    2.59    5.46
 -14   5   2   11.01    4.34
 -14  -5  -2    7.29    5.11
  14   5  -2    3.56    4.01
 -14  -5  -2    7.46    4.17
  14  -5   2    5.16    3.39
  14  -5   2    7.84    4.08
  14   5  -2    9.48    4.71
  14   5   2    4.63    3.11
 -14   5  -2    4.46    4.32
  14  -5  -2    8.58    2.90
  14   5   2    2.89    3.86
 -14  -5   2    0.23    4.05
  14   5   2    3.90    5.54
 -14  -5  -3    3.78    5.57
 -14  -5  -3    4.10    5.55
  14  -5   3   11.04    4.41
 -14   5   3    6.57    4.49
  14   5  -3    7.84    3.80
 -14   5   3    0.76    5.25
 -14  -5  -3    5.62    4.15
  14  -5   3    3.84    3.42
  14   5  -3    8.88    4.36
  14   5  -3   12.01    4.87
  14   5   3    4.26    5.51
  14  -5  -3   11.25    3.09
  14   5   3    7.69    3.32
 -14   5  -3    6.94    4.72
  14  -5  -3    8.08    4.55
  14   5   3   13.43    4.11
 -14   5   4   -1.63    5.02
 -14   5   4    1.88    4.49
  14  -5   4    8.73    4.60
 -14  -5  -4    1.64    6.18
 -14  -5  -4   13.98    6.31
  14   5  -4   11.97    5.13
  14  -5   4    0.17    3.68
  14   5  -4    6.35    4.91
 -14  -5  -4    1.21    4.23
 -14   5  -4    1.95    5.28
  14   5   4    6.37    3.53
 -14   5  -4    8.35    5.46
  14   5   4    3.45    5.97
  14  -5  -4    4.13    3.02
  14   5   4    6.86    3.90
  14  -5  -4   -0.87    4.24
 -14   5   5   10.84    4.84
  14   5  -5    7.83    5.35
  14  -5   5    5.00    5.02
 -14  -5  -5    9.72    6.97
 -14   5   5    0.38    5.51
  14  -5   5    4.73    3.96
 -14  -5  -5    1.06    4.39
 -14  -5  -5   14.93    6.68
  14   5  -5    5.52    5.34
  14  -5  -5    6.51    4.51
 -14   5  -5    0.18    5.62
  14   5   5    5.96    3.40
  14   5   5    0.75    4.02
 -14   5  -5    4.58    5.79
 -14  -5   5    6.75    4.23
  14   5   5    2.11    6.33
  14  -5   6    3.34    4.13
 -14  -5  -6    3.23    6.59
 -14   5   6    2.99    6.06
  14   5  -6    8.73    5.95
  14  -5   6    9.57    5.39
 -14   5   6    6.20    5.05
 -14  -5  -6    3.27    4.47
 -14  -5  -6    9.85    7.16
 -14  -5   6    8.87    5.67
  14   5   6   11.74    4.62
  14  -5  -6    4.81    4.68
  14   5   6   -2.83    6.39
 -14   5  -6    9.58    6.21
 -14   5  -6    7.31    5.96
 -14  -5   6    3.90    4.62
  14   5   6    7.65    3.66
  15   5   0    9.21    3.96
  15  -5   0    5.71    3.12
  15   5   0    6.42    3.24
  15   5   0    8.05    4.55
 -15  -5   0    0.17    4.69
 -15  -5   0   -3.70    4.78
  15  -5   0    6.72    3.57
 -15   5   0    1.30    4.21
  15   5  -1   14.17    4.77
  15   5  -1    3.99    3.87
  15  -5   1    5.59    3.25
 -15  -5  -1    3.64    4.83
  15   5  -1    3.18    3.54
  15  -5   1    2.22    3.59
 -15  -5  -1    7.85    5.49
 -15   5   1   -1.38    4.27
  15  -5  -1    7.35    3.33
  15   5   1    6.37    3.41
  15   5   1    4.64    5.35
  15   5   1    5.60    3.74
 -15  -5   1    2.42    4.62
  15  -5  -1    7.56    3.04
 -15   5  -1   -0.24    4.28
 -15  -5  -2    5.74    5.76
  15  -5   2    9.03    4.03
  15   5  -2    6.93    4.27
  15  -5   2    3.85    3.42
 -15  -5  -2    6.21    5.77
  15   5  -2   15.18    5.14
 -15   5   2    2.38    4.52
 -15  -5  -2    2.27    4.32
  15   5  -2    6.53    3.73
  15   5   2    9.54    4.34
  15   5   2    7.46    5.42
  15  -5  -2    8.45    3.08
  15   5   2    9.10    3.49
 -15  -5   2    6.60    4.59
 -15   5  -2    0.33    4.50
  15   5  -3    5.75    4.00
  15  -5   3    0.76    3.55
 -15   5   3   -6.61    5.20
  15   5  -3    9.85    5.00
  15   5  -3    6.06    4.56
 -15  -5  -3    4.98    4.54
 -15   5   3    3.54    4.71
 -15  -5  -3   -0.62    6.06
  15  -5   3    3.88    4.30
 -15  -5  -3   -1.36    5.86
 -15   5  -3    5.68    4.99
  15   5   3    1.98    5.81
  15  -5  -3    0.49    3.02
  15   5   3    0.38    3.31
  15   5   3    1.69    4.30
 -15  -5  -4   -3.55    6.23
  15  -5   4    1.11    3.67
  15  -5   4   -1.85    4.55
 -15  -5  -4    0.52    4.31
 -15   5   4   -3.38    5.39
 -15  -5  -4    6.60    6.44
  15   5  -4    7.47    5.05
 -15   5   4   -2.58    4.81
  15   5  -4    6.00    4.97
  15   5   4   -0.22    6.09
  15  -5  -4   -2.46    4.44
  15  -5  -4   -1.60    3.25
 -15   5  -4   -1.47    5.75
 -15   5  -4   -2.03    5.46
  15   5   4   16.05    4.63
  15   5   4    4.12    3.61
  15  -5   5    1.30    5.04
 -15  -5  -5    7.15    4.89
 -15   5   5    1.26    4.77
 -15   5   5   -8.75    5.24
  15   5  -5    2.20    5.31
 -15  -5  -5    8.55    6.89
  15   5  -5   12.46    5.66
 -15  -5  -5   12.31    7.03
  15  -5   5    0.80    3.73
  15   5   5    1.83    3.88
 -15  -5   5    1.86    3.97
  15   5   5    5.81    6.31
  15  -5  -5   -2.91    4.40
 -15   5  -5   -3.36    5.76
  15   5   5   10.17    3.71
 -15   5  -5    0.29    6.13
 -16  -5   0   -1.99    5.26
 -16   5   0   -1.50    4.41
  16  -5   0    7.47    3.38
  16  -5   0    6.10    3.82
  16   5   0    5.64    3.67
  16   5   0    8.38    4.71
  16   5   0    8.48    4.19
 -16  -5   0   -2.47    4.89
  16   5  -1    7.70    4.28
  16   5  -1   10.62    4.86
 -16   5   1   -4.35    4.43
 -16  -5  -1    1.73    5.45
 -16  -5  -1    2.11    5.80
  16   5  -1    6.57    3.72
  16  -5   1    5.89    3.86
  16  -5   1    0.24    3.43
  16   5   1    3.09    3.56
 -16  -5   1    6.47    4.89
 -16  -5   1    4.53    4.98
  16   5   1    5.52    4.11
  16  -5  -1    9.87    3.58
  16  -5  -1    4.77    3.06
  16   5   1    4.61    5.38
 -16   5  -1    2.28    4.74
  16   5  -2    4.98    3.91
 -16  -5  -2    2.59    5.98
  16   5  -2    6.42    5.03
  16  -5   2    2.72    4.21
 -16  -5  -2    6.48    4.58
  16   5  -2    7.18    4.56
 -16  -5  -2    0.95    5.93
 -16   5   2   -3.61    4.55
  16  -5   2    3.14    3.49
  16  -5  -2    4.13    3.07
  16   5   2    2.74    4.36
  16   5   2    1.26    5.54
 -16   5  -2    1.35    4.78
 -16  -5   2    2.48    4.87
  16   5   2    6.97    3.52
 -16   5   3   -0.84    5.28
  16   5  -3   11.99    5.29
  16  -5   3    6.45    3.84
 -16  -5  -3   -1.48    4.44
  16  -5   3    2.58    4.30
 -16  -5  -3   -0.45    6.38
 -16  -5  -3    0.53    6.23
  16   5  -3    9.65    4.91
  16   5  -3    3.44    4.02
  16   5   3   11.58    4.77
  16  -5  -3    5.60    3.30
 -16   5  -3   -3.69    4.95
  16   5   3    4.06    6.27
  16   5   3    6.46    3.64
 -16  -5  -4   -4.12    6.65
  16   5  -4    2.57    5.10
 -16   5   4    0.13    5.03
 -16  -5  -4   -3.28    6.66
  16   5  -4   11.21    5.34
  16  -5   4    2.33    4.58
  16  -5   4    1.88    3.77
 -16  -5  -4   -2.16    4.45
 -16   5  -4   -0.02    5.76
  16   5   4    7.06    4.46
  16   5   4    4.10    3.72
  16   5   4    5.10    6.33
 -16   5  -4    5.15    6.21
 -16  -5  -5    2.91    7.10
  16  -5   5   -0.91    4.00
  16   5  -5   -0.59    5.45
 -16  -5  -5    1.51    4.91
 -16   5   5   -4.56    5.29
  16  -5   5   12.69    5.51
 -16  -5  -5    4.87    7.09
  16   5  -5   -1.99    5.52
 -16  -5   5    5.78    4.23
  16   5   5   12.94    4.16
 -16   5  -5   -4.65    5.87
 -16   5  -5    5.50    6.72
  16  -5  -5    0.91    4.86
  16   5   5    2.33    6.59
  16   5   5    3.02    4.78
  17  -5   0   10.38    3.76
  17   5   0    6.83    3.77
 -17  -5   0    8.86    5.68
 -17   5   0    0.49    4.92
  17   5   0   21.69    5.32
  17   5   0   11.45    4.64
  17  -5   0    3.45    3.44
 -17  -5   0    5.01    5.70
  17   5  -1   20.30    5.25
  17  -5   1    8.34    4.06
 -17  -5  -1    2.94    5.99
 -17  -5  -1    5.59    6.16
  17   5  -1    8.12    4.51
  17  -5   1    7.99    3.75
  17   5  -1    7.86    4.03
 -17   5   1    1.97    4.95
 -17  -5   1    3.20    5.33
  17   5   1   13.51    4.50
  17   5   1   10.20    5.45
 -17  -5   1    0.98    5.14
  17  -5  -1   16.59    3.83
  17  -5  -1    7.87    3.35
 -17   5  -1   -0.80    4.81
  17   5   1    3.22    3.78
  17   5  -2   15.79    4.87
 -17   5   2    2.52    5.31
  17  -5   2    3.36    4.05
 -17  -5  -2   -2.86    6.10
 -17  -5  -2   -2.43    6.44
 -17  -5  -2   -2.17    4.71
  17   5  -2   14.32    5.33
  17   5  -2    4.16    4.10
  17  -5   2    5.50    3.57
  17  -5  -2    5.58    3.53
  17  -5  -2    6.49    3.26
  17   5   2    6.91    3.75
  17   5   2   17.33    6.20
 -17  -5   2    1.90    5.25
  17   5   2    9.34    4.52
 -17   5  -2   -4.21    4.86
 -17  -5   2    0.55    4.93
  17   5  -3    4.69    4.28
  17   5  -3    9.52    5.15
 -17  -5  -3    0.70    4.99
 -17  -5  -3   -5.48    6.40
  17  -5   3    2.25    3.70
 -17  -5  -3    0.01    6.65
 -17   5   3   -2.95    5.15
  17   5  -3    8.83    4.99
  17  -5   3    5.18    4.46
  17   5   3    3.91    4.71
  17   5   3   11.02    6.32
  17   5   3    7.08    3.83
  17  -5  -3    5.84    3.39
 -17   5  -3    1.17    5.28
  17   5  -4   19.21    5.73
  17  -5   4    7.00    4.08
 -17   5   4   -1.06    5.40
  17   5  -4    6.57    5.29
 -17  -5  -4    9.42    7.14
  17  -5   4    4.26    4.81
 -17  -5  -4    4.53    6.98
 -17  -5  -4   -2.05    5.02
  17   5   4    3.14    6.31
 -17   5  -4    2.38    6.65
 -17   5  -4   -1.54    6.06
  17   5   4   10.01    5.00
  17   5   4    2.91    3.61
 -18  -5   0    1.85    6.02
 -18  -5   0    6.24    5.96
  18   5   0    8.77    4.67
 -18   5   0    4.01    5.30
  18   5   0    5.59    3.86
  18   5   0   17.11    5.19
  18  -5   0    9.36    3.51
  18  -5   0    6.24    3.71
  18  -5   1    6.79    4.04
  18   5  -1   21.01    5.12
 -18  -5  -1   -1.66    6.18
 -18  -5  -1    1.49    6.36
  18  -5   1    8.25    3.79
 -18   5   1    6.48    5.64
  18   5  -1    3.32    4.09
  18   5  -1    9.06    4.60
  18  -5  -1    6.74    3.69
  18  -5  -1    1.90    3.28
 -18  -5   1    8.54    5.58
  18   5   1   10.74    4.03
 -18  -5   1    0.68    5.44
  18   5   1   12.94    4.75
  18   5   1   19.10    5.65
 -18   5  -1    1.82    5.24
  18  -5   2    3.82    3.77
  18   5  -2   16.29    5.25
  18  -5   2   10.41    4.28
  18   5  -2    0.86    4.03
 -18   5   2   -0.52    5.43
  18   5  -2   10.32    4.82
 -18  -5  -2   -2.77    6.42
 -18  -5  -2   14.14    7.02
 -18  -5  -2   -3.24    4.82
 -18  -5   2    6.23    5.59
  18   5   2   13.30    4.81
 -18  -5   2   -0.07    5.47
  18   5   2    8.31    3.95
 -18   5  -2    1.11    5.21
  18   5   2   11.77    6.18
  18  -5  -2    5.71    3.29
  18   5  -3    5.51    4.95
  18   5  -3   16.98    5.76
  18  -5   3    3.86    4.61
 -18  -5  -3    3.76    7.00
 -18  -5  -3  -10.52    4.84
  18   5  -3    8.36    4.50
 -18   5   3   -4.24    5.56
 -18  -5  -3   -4.54    6.65
  18  -5   3    8.23    3.90
  18  -5  -3    8.35    3.55
  18   5   3    2.43    3.88
 -18   5  -3   -7.83    5.08
 -18   5  -3    4.80    6.49
  18   5   3   -3.34    4.90
  18   5   3    5.01    6.12
 -19   5   0    1.20    5.77
  19  -5   0    9.04    3.89
 -19  -5   0    1.49    6.27
 -19  -5   0    2.78    6.50
  19   5   0    9.82    4.33
  19  -5   0    5.35    3.47
  19   5   0   20.19    5.56
  19   5   0   10.75    4.90
 -19  -5  -1  -10.71    6.43
 -19  -5  -1    0.54    5.09
  19   5  -1   14.63    5.03
  19   5  -1    8.89    4.32
 -19   5   1   -2.14    5.60
 -19  -5  -1   -6.54    6.34
  19   5  -1   23.74    5.18
  19  -5   1   10.45    4.22
  19  -5   1    6.39    3.73
 -19   5  -1   -2.22    5.47
  19   5   1    7.45    4.16
  19  -5  -1    7.43    3.57
 -19  -5   1    1.82    6.10
  19   5   1   15.44    5.29
  19  -5  -1   17.56    3.96
  19   5   1   11.94    5.05
 -19  -5   1    7.93    6.14
   0  -6   0   35.15    2.45
   0   6   0   39.68    4.30
   0   6   1    6.83    2.59
   0  -6   1    2.45    1.47
   0  -6  -1    3.12    1.64
   0   6  -1    5.62    3.05
   0  -6  -1    3.37    1.83
   0  -6   1    3.85    1.70
   0  -6  -1    2.31    1.67
   0  -6   2  118.89    3.84
   0  -6  -2  118.59    3.79
   0   6   2  116.03    5.23
   0  -6  -2  123.89    4.74
   0  -6  -2  118.03    4.19
   0   6   2  113.96    4.32
   0  -6   2  120.74    4.30
   0   6  -2  117.69    4.38
   0   6  -2  117.01    5.88
   0  -6   2  113.74    4.11
   0  -6  -3   26.81    2.92
   0   6   3   31.17    3.92
   0   6  -3   32.08    3.91
   0  -6  -3   27.98    3.42
   0  -6  -3   26.63    3.43
   0  -6  -3   31.31    4.03
   0  -6   3   29.00    3.51
   0  -6   3   33.36    3.86
   0   6   3   33.72    4.16
   0  -6   3   28.18    3.02
   0   6  -3   27.02    4.48
   0   6   4   12.09    3.67
   0   6  -4    6.64    4.13
   0  -6   4    8.37    3.13
   0  -6  -4    9.24    2.80
   0   6   4    9.39    3.85
   0  -6   4   10.06    2.68
   0  -6  -4   10.14    3.21
   0   6  -4   11.58    3.35
   0  -6  -4    9.36    3.56
   0  -6  -4    7.44    2.90
   0  -6   4   10.14    3.02
   0   6   5   17.33    5.25
   0  -6  -5   18.80    4.92
   0   6   5   15.10    4.73
   0  -6  -5   14.32    3.90
   0  -6   5   13.51    3.37
   0  -6   5   12.62    3.60
   0  -6   5   14.26    4.24
   0  -6  -5   13.85    4.27
   0  -6  -5   17.05    3.42
   0   6  -5   14.40    5.20
   0  -6  -6   14.70    3.61
   0  -6  -6   21.58    5.79
   0  -6   6   16.23    3.84
   0  -6   6   23.02    5.79
   0   6  -6   17.08    6.38
   0  -6  -6   15.84    4.97
   0  -6   6   22.42    4.52
   0   6   6   22.68    6.05
   0   6   6   20.54    6.34
   0  -6  -6   18.17    4.73
   0   6  -7    2.30    5.54
   0  -6   7   -2.55    3.69
   0  -6  -7    2.50    3.97
   0  -6  -7    8.34    4.46
   0  -6  -7    4.09    3.32
   0  -6   7   -4.94    3.89
   0   6   7    3.21    5.81
   0   6   7   -4.20    5.67
   0  -6  -7   -0.80    4.85
   0  -6   7    1.90    5.18
   0   6  -8    2.32    6.09
   0  -6   8   -1.04    5.87
   0  -6  -8    7.24    3.66
   0   6   8    5.32    6.54
   0  -6  -8    4.87    4.09
   0  -6  -8    0.79    5.70
   0  -6  -8    7.77    4.67
   0  -6   8   -8.56    4.06
   0  -6   8   -1.97    5.14
   1   6   0  188.96    6.58
   1   6   0  202.46    5.07
   1  -6   0  196.23    4.70
  -1   6   0  191.81    6.80
   1  -6   0  198.14    4.43
  -1  -6  -1  150.67    3.88
   1   6  -1  154.26    6.14
  -1  -6  -1  148.57    4.62
  -1   6   1  150.20    5.72
   1  -6   1  142.50    3.83
   1   6  -1  157.90    4.51
  -1  -6  -1  150.05    4.29
  -1  -6   1  153.91    3.85
   1   6   1  147.46    5.44
   1   6   1  155.67    4.68
  -1  -6   1  146.34    4.08
  -1   6  -1  153.37    6.45
   1  -6  -1  154.37    4.62
   1  -6  -1  160.50    4.29
   1  -6  -1  153.41    3.80
  -1  -6  -2  149.02    5.07
  -1   6   2  147.31    5.89
   1  -6   2  145.96    4.72
   1  -6   2  148.27    4.61
  -1  -6  -2  148.21    4.14
  -1  -6  -2  149.41    4.68
   1  -6   2  140.25    4.25
   1   6  -2  149.07    6.37
   1   6  -2  150.80    4.91
   1  -6  -2  154.32    4.14
   1  -6  -2  151.12    5.06
  -1  -6   2  146.83    4.51
  -1   6  -2  153.40    4.87
   1  -6  -2  151.88    4.62
   1   6   2  150.20    5.05
   1   6   2  143.52    5.61
  -1   6  -2  151.82    6.55
  -1  -6   2  151.75    4.23
  -1  -6  -3  307.94    6.76
  -1   6   3  299.95    7.72
   1  -6   3  295.93    7.44
   1  -6   3  300.37    7.12
  -1  -6  -3  297.83    7.46
   1   6  -3  305.49    9.91
  -1   6   3  294.83    9.17
   1   6  -3  311.90    8.22
  -1  -6  -3  303.97    8.01
  -1  -6  -3  301.36    8.74
   1  -6   3  311.72    8.08
   1  -6  -3  298.44    7.34
  -1  -6   3  300.19    6.96
  -1   6  -3  300.50    9.91
  -1  -6   3  299.83    8.14
   1   6   3  291.44    8.85
   1   6   3  308.81    8.08
   1  -6  -3  310.22    9.16
   1  -6  -3  303.85    6.63
   1  -6  -3  297.64    7.86
  -1  -6   3  294.49    7.36
  -1   6  -3  312.02    8.18
  -1  -6  -4  164.20    5.20
  -1  -6  -4  172.04    7.47
  -1  -6  -4  163.72    6.58
   1  -6   4  163.42    6.72
   1  -6   4  152.25    5.56
  -1   6   4  168.05    6.77
   1   6  -4  169.62    6.84
   1   6  -4  163.98    8.44
  -1   6   4  159.95    7.81
   1  -6   4  165.29    6.12
  -1  -6  -4  163.34    6.05
  -1  -6   4  167.16    6.08
   1   6   4  166.15    7.78
   1  -6  -4  165.74    6.48
  -1   6  -4  160.80    8.48
   1  -6  -4  171.07    7.68
   1   6   4  167.48    7.00
   1  -6  -4  166.62    5.95
   1  -6  -4  163.35    5.10
  -1  -6   4  165.60    6.87
  -1  -6   4  161.53    5.52
   1   6  -5   60.94    7.41
   1  -6   5   51.26    5.14
  -1   6   5   65.75    6.40
   1  -6   5   63.93    6.29
   1  -6   5   52.72    4.67
  -1   6   5   56.46    6.94
  -1  -6  -5   63.12    5.37
  -1  -6  -5   56.67    4.26
  -1  -6  -5   63.21    6.52
  -1  -6  -5   56.55    5.77
  -1  -6   5   61.21    5.27
   1   6   5   62.47    7.03
   1  -6  -5   53.78    5.12
  -1   6  -5   51.74    7.20
   1  -6  -5   56.29    5.59
   1  -6  -5   52.93    4.07
  -1  -6   5   60.10    6.01
   1   6   5   62.85    6.63
  -1  -6   5   54.06    4.45
   1  -6  -5   56.58    6.44
  -1  -6  -6   36.00    5.25
  -1  -6  -6   39.10    5.79
   1  -6   6   39.29    6.25
   1  -6   6   32.33    4.92
  -1  -6  -6   40.68    6.66
  -1   6   6   35.56    6.89
  -1  -6  -6   34.95    4.27
   1  -6   6   34.82    4.72
   1   6  -6   39.04    7.38
  -1   6   6   32.73    6.24
  -1  -6   6   35.37    6.11
  -1  -6   6   29.12    4.21
   1  -6  -6   38.45    5.53
  -1   6  -6   38.12    7.32
   1   6   6   37.67    6.91
   1   6   6   37.92    6.48
   1  -6  -6   37.19    6.82
   1  -6  -6   35.21    4.39
  -1  -6   6   28.51    4.90
   1  -6  -6   33.74    5.14
  -1  -6  -7   18.28    3.66
  -1   6   7   13.25    6.53
   1  -6   7    6.46    4.63
   1  -6   7   10.23    4.15
  -1  -6  -7    9.44    5.38
   1  -6   7    8.11    5.50
  -1   6   7    3.61    6.04
  -1  -6  -7   16.18    4.49
  -1  -6  -7   18.97    5.11
   1   6  -7   12.15    6.00
   1   6   7   14.36    6.36
   1   6   7   15.31    6.16
  -1  -6   7   14.73    4.75
   1  -6  -7   21.55    3.80
  -1  -6   7    9.02    3.64
   1  -6  -7   20.87    4.86
   1  -6  -7   19.95    4.43
  -1   6  -7   15.85    6.32
   1  -6  -7    9.67    5.52
  -1  -6   7   17.75    5.93
   1   6  -8    0.66    6.28
   1  -6   8    0.96    6.23
  -1   6   8  -15.99    6.65
   1  -6   8   -4.85    5.09
  -1  -6  -8    7.89    4.71
  -1  -6  -8    1.19    5.56
   1  -6   8   -3.23    4.25
  -1   6   8   -1.37    6.28
  -1  -6  -8   10.78    3.34
  -1  -6  -8   11.46    4.66
  -1  -6   8    2.44    5.19
   1  -6  -8    2.29    3.95
   1   6   8    1.30    6.06
   1  -6  -8   -1.41    5.52
  -1   6  -8    5.37    6.38
  -1  -6   8   -4.35    5.92
   1  -6  -8    6.53    3.42
   1  -6  -8    9.98    4.63
  -1  -6   8   -4.41    4.24
   1   6   8  -12.06    6.52
   2   6   0   27.24    2.98
   2  -6   0   28.00    1.85
   2  -6   0   27.84    2.38
   2   6   0   29.39    4.07
  -2   6   0   32.08    4.24
  -2  -6  -1   74.26    2.90
   2  -6   1   71.87    2.88
  -2  -6  -1   75.97    3.31
  -2  -6  -1   76.17    3.65
   2   6  -1   77.42    3.51
   2   6  -1   77.98    3.00
   2   6  -1   80.46    4.81
  -2   6   1   81.54    4.68
   2   6   1   85.25    4.04
   2  -6  -1   81.35    3.20
  -2   6  -1   73.53    5.43
  -2  -6   1   79.75    3.17
   2  -6  -1   84.27    3.50
   2   6   1   77.79    4.15
   2  -6  -1   78.77    2.79
  -2  -6  -2   78.06    4.11
   2  -6   2   83.70    3.49
   2   6  -2   86.47    5.24
  -2  -6  -2   87.16    3.79
  -2   6   2   84.25    4.92
   2   6  -2   89.50    4.08
   2  -6   2   85.41    3.77
  -2  -6  -2   85.60    3.37
  -2   6  -2   79.58    5.23
   2  -6  -2   82.78    3.16
   2  -6  -2   84.34    3.91
   2   6   2   84.94    4.46
   2  -6  -2   85.27    3.64
  -2  -6   2   83.91    3.30
   2   6   2   87.07    4.35
  -2  -6   2   85.21    3.63
   2   6  -3   44.71    5.17
   2  -6   3   44.26    3.45
  -2  -6  -3   47.10    4.13
  -2  -6  -3   45.45    3.70
   2  -6   3   47.51    3.97
   2  -6   3   46.55    3.80
  -2   6   3   47.76    3.91
   2   6  -3   49.55    4.11
  -2  -6  -3   45.04    3.13
  -2  -6  -3   49.53    4.28
  -2   6   3   51.13    4.73
  -2  -6   3   41.67    3.14
  -2  -6   3   49.88    3.67
   2  -6  -3   51.95    4.71
  -2   6  -3   46.79    5.23
   2  -6  -3   42.58    3.33
  -2  -6   3   48.03    3.94
   2   6   3   46.67    4.55
   2   6   3   47.74    4.36
   2  -6  -3   46.92    3.78
   2  -6  -3   44.53    2.94
  -2  -6  -4   13.95    3.56
  -2   6   4   12.44    3.97
   2  -6   4    9.42    2.81
   2   6  -4   16.24    4.72
   2  -6   4   12.59    3.15
  -2  -6  -4   14.00    2.83
   2  -6   4   14.84    3.67
  -2   6   4   12.15    3.55
  -2  -6  -4   13.61    3.24
  -2  -6  -4   16.85    3.83
   2   6  -4   14.80    3.64
  -2  -6   4   10.80    2.67
   2  -6  -4   11.85    2.67
   2  -6  -4   13.37    2.93
   2  -6  -4   14.51    3.94
   2  -6  -4   13.91    3.25
   2   6   4   16.33    3.99
  -2   6  -4   16.93    4.76
  -2  -6   4   11.02    2.93
   2   6   4   16.18    4.04
  -2  -6   4   12.39    3.53
  -2   6   5   12.70    4.92
  -2  -6  -5   10.36    3.85
   2  -6   5   11.34    3.48
  -2  -6  -5   10.80    3.19
   2   6  -5   14.42    4.39
   2   6  -5   10.29    5.29
  -2   6   5   14.67    4.60
   2  -6   5   11.89    4.51
   2  -6   5   11.19    3.74
  -2  -6  -5   14.12    4.24
  -2  -6  -5   14.86    4.77
   2   6   5   14.21    4.86
  -2  -6   5   14.68    3.79
   2  -6  -5    8.65    3.12
   2   6   5   14.03    5.14
   2  -6  -5   13.59    4.73
  -2  -6   5   16.23    4.41
  -2  -6   5   14.61    3.40
  -2   6  -5   12.00    5.42
   2  -6  -5    9.01    3.51
   2  -6  -5   11.94    3.89
  -2  -6  -6   18.07    5.04
  -2   6   6   14.48    5.94
  -2  -6  -6   11.33    4.48
  -2  -6  -6   13.90    3.67
   2  -6   6   13.62    4.10
   2   6  -6   20.47    6.48
   2  -6   6   19.94    5.67
   2  -6   6   16.08    4.56
  -2  -6  -6   16.56    5.65
  -2   6   6   12.12    5.59
  -2  -6   6   17.91    5.08
  -2   6  -6   14.63    6.24
  -2  -6   6   14.63    4.47
   2  -6  -6   15.36    4.20
   2  -6  -6   15.95    5.70
   2   6   6   21.31    6.30
   2  -6  -6   21.58    3.77
   2   6   6   13.57    5.89
  -2  -6   6   18.95    3.84
   2  -6  -6   13.88    4.58
  -2   6   7    6.04    6.08
   2  -6   7   10.07    5.74
  -2   6   7   11.77    6.29
   2   6  -7   14.79    6.60
   2  -6   7   11.80    4.31
   2  -6   7    4.95    4.79
  -2  -6  -7   14.63    3.48
  -2  -6  -7   15.95    4.91
  -2  -6  -7   18.50    4.53
  -2  -6  -7   13.67    5.51
   2  -6  -7   17.76    6.23
  -2  -6   7    5.53    4.58
   2  -6  -7   16.54    3.56
   2   6   7    6.10    6.21
  -2   6  -7   17.47    6.25
   2  -6  -7   13.77    4.56
   2  -6  -7   14.06    4.24
   2   6   7   10.68    6.20
  -2  -6   7    7.46    3.56
  -2  -6   7   11.37    5.69
   2  -6   8   -3.57    5.32
  -2  -6  -8   14.34    4.67
  -2   6   8    2.92    6.57
   2  -6   8   -2.40    6.28
  -2  -6  -8    3.68    5.53
   2  -6   8   -2.43    4.20
  -2   6   8  -13.31    6.67
  -2  -6  -8    9.02    3.48
   2   6  -8    2.54    6.67
  -2  -6  -8   10.94    5.03
   2  -6  -8    8.90    3.40
   2  -6  -8    7.30    4.30
  -2  -6   8    4.21    5.38
   2   6   8    4.07    6.41
  -2  -6   8    4.46    6.16
  -2   6  -8    1.07    6.40
   2  -6  -8    5.64    5.95
   2  -6  -8    4.61    4.39
  -2  -6   8    7.22    4.60
   2   6   8   -4.22    6.76
   3  -6   0  318.74    5.96
   3   6   0  318.42    8.06
   3   6   0  314.80    5.90
   3   6   0  326.77    7.51
  -3   6   0  315.23    8.76
   3  -6   0  323.03    6.76
   3   6   0  314.78    6.10
  -3   6   1  138.73    5.79
  -3  -6  -1  134.36    4.60
  -3  -6  -1  130.28    4.18
   3  -6   1  135.71    3.85
   3   6  -1  134.50    4.59
  -3  -6  -1  133.86    3.76
   3   6  -1  133.12    5.47
   3  -6   1  135.63    3.73
   3   6  -1  135.54    3.87
  -3   6  -1  137.95    3.84
   3  -6  -1  132.45    4.33
   3   6   1  139.13    5.08
   3  -6  -1  136.37    3.54
   3   6   1  132.96    4.95
   3  -6  -1  133.23    4.03
  -3   6  -1  139.44    6.59
  -3   6   2  237.98    7.81
   3   6  -2  241.58    7.93
  -3  -6  -2  249.25    6.28
  -3  -6  -2  246.24    5.64
   3   6  -2  243.51    6.76
  -3  -6  -2  243.87    6.70
   3   6  -2  238.66    5.88
   3  -6   2  235.70    5.79
   3  -6   2  243.67    6.22
   3  -6  -2  243.43    6.48
   3  -6  -2  241.48    6.01
  -3   6  -2  249.53    8.55
   3   6   2  245.63    7.03
   3  -6  -2  246.57    5.45
  -3  -6   2  249.24    6.04
   3   6   2  250.18    7.04
  -3  -6  -3  119.50    5.49
  -3  -6  -3  116.37    4.19
   3  -6   3  133.02    5.27
  -3   6   3  117.54    6.19
  -3  -6  -3  122.53    5.51
  -3  -6  -3  122.67    4.98
   3  -6   3  124.59    5.11
   3  -6   3  121.12    4.61
   3   6  -3  126.30    5.46
   3   6  -3  124.64    6.82
  -3   6  -3  120.91    6.94
   3  -6  -3  123.67    4.03
   3   6   3  123.51    5.70
   3   6   3  127.37    6.01
  -3  -6   3  121.16    4.33
   3  -6  -3  122.02    4.61
   3  -6  -3  127.55    5.10
   3  -6  -3  121.05    6.32
  -3  -6   3  125.49    4.75
  -3  -6  -4   58.02    5.22
  -3   6   4   57.21    5.86
   3   6  -4   56.47    5.16
   3  -6   4   64.28    5.31
   3   6  -4   56.83    6.39
  -3   6   4   62.61    5.12
  -3  -6  -4   53.64    3.77
   3  -6   4   53.12    4.23
  -3  -6  -4   55.44    4.67
   3  -6   4   61.29    4.91
  -3  -6  -4   53.74    5.24
   3   6   4   59.50    5.74
   3  -6  -4   61.41    4.67
   3  -6  -4   60.93    4.36
   3  -6  -4   58.65    3.51
   3  -6  -4   53.37    5.68
  -3   6  -4   60.32    6.55
  -3  -6   4   59.84    4.39
   3   6   4   63.66    5.67
  -3  -6   4   58.56    3.87
  -3  -6   4   61.15    5.18
   3   6  -5   31.16    6.53
   3  -6   5   27.45    4.49
   3   6  -5   28.56    4.75
  -3  -6  -5   28.76    5.22
   3  -6   5   29.13    4.04
  -3   6   5   29.07    5.71
  -3  -6  -5   24.84    4.42
  -3  -6  -5   26.04    4.84
  -3  -6  -5   31.11    3.83
   3  -6   5   26.37    5.18
  -3   6   5   30.87    5.04
  -3  -6   5   31.37    5.01
  -3  -6   5   29.52    4.28
   3  -6  -5   32.78    3.57
   3  -6  -5   29.57    4.17
   3   6   5   31.14    5.77
  -3  -6   5   26.46    3.65
   3  -6  -5   29.44    4.44
   3  -6  -5   30.54    5.61
  -3   6  -5   26.03    6.10
   3   6   5   34.87    5.72
   3  -6   6   22.54    4.88
  -3  -6  -6   21.92    5.63
  -3   6   6   17.89    5.98
   3  -6   6   17.85    4.26
   3  -6   6   21.37    5.72
  -3   6   6   22.15    5.74
  -3  -6  -6   25.47    5.48
  -3  -6  -6   22.46    4.88
  -3  -6  -6   17.34    3.65
   3   6  -6   20.52    6.78
   3   6   6   24.34    6.31
  -3  -6   6   20.34    4.49
   3  -6  -6   17.45    3.46
   3   6   6   18.76    5.97
   3  -6  -6   21.91    4.66
  -3  -6   6   16.46    5.02
   3  -6  -6   19.09    4.28
   3  -6  -6   21.62    6.01
  -3  -6   6   16.45    3.72
  -3   6  -6   22.58    6.50
  -3  -6  -7   11.04    4.53
   3  -6   7    1.38    4.62
   3  -6   7    5.91    4.17
  -3   6   7    7.85    6.13
   3  -6   7    8.14    6.03
   3   6  -7   13.99    6.50
  -3  -6  -7   13.13    3.63
  -3  -6  -7   17.73    5.04
  -3  -6  -7    8.54    5.40
  -3   6   7   10.30    6.09
  -3  -6   7    5.63    4.59
   3  -6  -7   14.24    3.59
  -3  -6   7   10.64    5.07
   3   6   7    9.94    6.03
   3  -6  -7   10.82    4.29
   3  -6  -7    9.99    4.33
   3  -6  -7    9.70    5.84
   3   6   7    4.43    6.02
  -3  -6   7   11.18    3.64
  -3   6  -7   17.21    6.16
   3   6  -8    4.91    6.62
  -3  -6  -8   10.72    5.11
  -3   6   8    7.87    6.78
   3  -6   8   -2.93    4.26
  -3  -6  -8    7.68    3.47
   3  -6   8    1.00    5.48
  -3  -6  -8   11.74    4.47
  -3  -6  -8    3.28    5.52
   3  -6   8   -5.78    6.31
  -3   6   8  -13.19    6.80
  -3  -6   8   -4.82    3.61
   3  -6  -8    5.01    6.04
  -3  -6   8    3.41    5.28
  -3   6  -8    2.38    6.07
   3   6   8   -6.29    6.52
   3  -6  -8    6.50    4.14
  -3  -6   8    4.89    5.86
   3  -6  -8    5.52    4.43
   3  -6  -8    8.26    3.39
   3   6   8    5.28    6.26
   4  -6   0    6.97    1.78
  -4   6   0    8.32    3.13
   4   6   0    8.74    1.42
   4   6   0    8.17    1.58
   4   6   0    9.68    2.37
  -4   6   0    6.95    1.82
   4  -6   1   65.80    2.92
  -4   6   1   73.78    4.91
  -4  -6  -1   67.35    3.05
  -4  -6  -1   65.28    3.84
   4  -6   1   67.58    3.16
  -4  -6  -1   70.40    3.51
   4   6  -1   69.46    3.86
   4   6  -1   70.35    3.03
   4   6  -1   69.60    4.37
  -4   6  -1   75.25    5.74
  -4   6  -1   68.68    3.15
   4  -6  -1   71.96    3.50
   4   6   1   72.25    4.48
   4   6   1   71.31    2.75
   4   6   1   73.68    2.43
   4  -6  -1   70.30    2.75
  -4  -6  -2    4.99    2.39
  -4   6   2    7.70    2.98
   4   6  -2    5.33    3.02
   4  -6   2    6.73    2.04
  -4  -6  -2    6.24    2.57
   4   6  -2    5.21    2.30
   4   6  -2    6.10    2.12
  -4  -6  -2    4.78    2.27
   4  -6   2    5.74    2.42
   4  -6  -2    5.88    1.67
   4  -6  -2    5.70    1.94
  -4   6  -2    5.26    3.58
   4  -6  -2    7.75    2.10
   4   6   2    4.96    2.88
  -4  -6   2    5.67    2.25
  -4  -6  -3   30.87    4.17
  -4  -6  -3   32.04    3.84
   4  -6   3   35.50    3.66
   4   6  -3   37.24    4.02
  -4   6   3   32.07    4.48
   4  -6   3   32.84    3.32
   4  -6   3   35.33    3.95
   4   6  -3   35.41    4.98
  -4  -6  -3   35.92    3.11
  -4  -6  -3   34.59    3.77
  -4   6  -3   31.70    5.22
   4   6   3   37.33    4.62
   4  -6  -3   32.35    2.70
   4  -6  -3   35.03    3.29
  -4  -6   3   34.87    3.43
   4  -6  -3   38.58    3.70
   4   6   3   35.64    4.00
  -4  -6   3   34.34    2.91
   4  -6   4   39.10    4.09
  -4  -6  -4   34.73    4.49
  -4  -6  -4   37.03    3.72
   4  -6   4   46.82    4.84
  -4  -6  -4   38.77    5.13
  -4   6   4   39.97    4.69
   4   6  -4   38.35    6.21
   4   6  -4   40.19    4.88
  -4   6   4   41.31    5.62
   4  -6   4   35.90    5.08
  -4  -6  -4   40.52    4.90
   4  -6  -4   40.89    4.49
   4  -6  -4   41.52    3.28
   4   6   4   40.47    5.19
  -4  -6   4   46.31    4.30
  -4   6  -4   35.69    6.37
  -4  -6   4   37.51    4.88
   4  -6  -4   43.54    4.02
   4  -6  -4   37.45    5.52
  -4  -6   4   41.99    3.74
   4   6   4   39.99    5.77
   4   6  -5   20.16    5.96
   4  -6   5   16.38    4.12
   4   6  -5   19.57    4.53
  -4  -6  -5   16.96    3.56
  -4   6   5   20.64    5.45
  -4  -6  -5   18.56    4.81
  -4  -6  -5   22.76    4.92
   4  -6   5   20.47    3.74
  -4   6   5   19.87    4.63
  -4  -6  -5   19.39    4.39
   4  -6   5   23.91    5.11
  -4  -6   5   18.57    3.80
   4  -6  -5   18.38    3.79
  -4  -6   5   15.74    4.57
   4   6   5   27.53    5.43
  -4  -6   5   14.52    3.41
   4  -6  -5   15.70    5.03
   4  -6  -5   21.90    4.32
   4   6   5   17.00    5.21
   4  -6  -5   20.76    3.26
  -4   6  -5   21.86    6.19
   4  -6   6   16.28    4.00
  -4   6   6   19.36    5.86
  -4  -6  -6   18.58    5.35
   4   6  -6   18.92    4.87
  -4  -6  -6   23.26    4.82
   4  -6   6   13.19    4.47
  -4  -6  -6   19.15    3.70
   4  -6   6   25.12    5.98
  -4  -6  -6   25.23    5.66
   4   6  -6   18.72    6.57
  -4   6   6   21.10    5.64
   4  -6  -6   20.18    4.09
   4   6   6   19.83    5.82
  -4  -6   6   17.72    3.83
   4   6   6   26.29    6.28
   4  -6  -6   21.75    6.09
   4  -6  -6   20.15    4.46
   4  -6  -6   25.75    3.69
  -4  -6   6   19.94    4.69
  -4   6  -6   23.51    6.66
  -4  -6   6   16.67    4.90
  -4  -6  -7   21.19    5.60
  -4   6   7    8.34    6.16
  -4   6   7   18.35    6.50
   4  -6   7    8.21    5.00
   4  -6   7   10.17    4.30
  -4  -6  -7   13.25    5.61
  -4  -6  -7   12.62    3.50
   4  -6   7    9.24    6.12
  -4  -6  -7   10.58    4.68
   4   6  -7    4.45    6.23
  -4  -6   7    6.70    3.59
   4  -6  -7   14.41    4.15
  -4  -6   7    8.69    5.31
   4   6   7   17.96    6.55
   4   6   7    6.39    6.05
  -4   6  -7   11.71    6.16
   4  -6  -7   11.59    4.38
  -4  -6   7   15.95    4.90
   4  -6  -7   13.15    6.15
   4  -6  -7   18.22    3.57
   4  -6   8    5.63    6.97
  -4  -6  -8   12.81    3.80
   4  -6   8   -0.81    5.47
  -4  -6  -8   13.52    4.87
  -4   6   8    2.67    7.07
  -4  -6  -8    5.06    5.60
  -4  -6  -8   23.26    5.83
   4   6  -8   13.43    7.30
   4  -6   8    7.90    4.85
  -4   6   8    8.19    6.56
   4  -6  -8   13.15    3.48
  -4  -6   8    3.06    3.91
   4   6   8    1.06    6.85
  -4  -6   8    0.61    5.29
  -4  -6   8    9.46    6.24
   4  -6  -8    3.40    3.86
   4   6   8    9.85    6.29
   4  -6  -8    8.57    4.61
   4  -6  -8    2.22    5.99
  -4   6  -8   10.71    6.62
  -5  -6   0   56.92    3.53
  -5   6   0   62.19    3.34
   5   6   0   64.15    2.95
  -5   6   0   66.23    5.24
   5  -6   0   63.76    3.37
   5   6   0   63.09    4.16
   5   6   0   64.91    2.61
   5   6  -1  145.05    5.39
   5  -6   1  132.81    4.05
  -5  -6  -1  139.44    4.20
  -5  -6  -1  137.96    4.68
   5   6  -1  137.65    4.29
  -5  -6  -1  141.70    5.21
  -5   6   1  147.62    6.42
   5  -6   1  142.13    4.52
   5   6   1  146.11    5.94
  -5   6  -1  144.34    4.55
   5  -6  -1  138.29    3.92
   5   6   1  142.73    3.70
   5   6   1  139.26    3.99
   5  -6  -1  139.54    4.83
  -5   6  -1  142.67    7.16
  -5   6   2   41.72    4.50
   5   6  -2   39.81    4.44
  -5  -6  -2   36.66    4.05
   5  -6   2   33.21    3.70
  -5  -6  -2   37.93    3.65
   5  -6   2   41.30    3.17
   5   6  -2   34.86    3.74
   5   6  -2   36.65    3.17
  -5  -6  -2   39.97    3.04
  -5   6  -2   44.00    3.36
   5  -6  -2   37.44    2.56
   5  -6  -2   34.75    3.34
   5   6   2   41.74    2.33
   5   6   2   40.08    4.50
  -5   6  -2   40.42    5.26
   5   6   2   41.31    2.84
   5  -6   3   23.29    2.91
  -5  -6  -3   20.24    3.56
   5   6  -3   24.40    4.53
   5   6  -3   22.98    3.49
  -5  -6  -3   18.45    2.81
   5   6  -3   16.26    2.81
   5  -6   3   17.18    3.11
  -5  -6  -3   19.91    3.31
  -5   6   3   19.17    3.98
   5   6   3   17.10    3.70
  -5   6  -3   19.52    4.63
   5  -6  -3   18.09    2.73
   5  -6  -3   18.63    2.38
  -5  -6   3   20.38    2.95
   5  -6  -3   17.34    2.85
   5  -6   4   15.25    3.27
   5  -6   4   20.84    4.21
   5  -6   4   15.61    3.57
  -5  -6  -4   18.53    3.24
  -5  -6  -4   15.07    3.75
   5   6  -4   17.28    3.99
  -5  -6  -4   15.66    3.86
  -5   6   4   19.10    4.64
  -5  -6  -4   18.88    4.17
   5   6  -4   21.28    5.47
  -5  -6   4   16.35    2.86
   5  -6  -4   14.96    3.44
   5   6   4   17.14    4.18
  -5   6  -4   16.28    5.22
   5   6   4   19.44    4.74
   5  -6  -4   17.24    3.35
  -5  -6   4   15.79    3.89
  -5  -6   4   13.60    3.14
   5  -6  -4   18.20    4.70
   5   6   4   16.18    3.06
   5  -6  -4   16.47    2.65
   5  -6   5   14.14    4.86
   5  -6   5   10.43    3.47
  -5  -6  -5    8.45    4.20
   5   6  -5   14.89    4.55
  -5  -6  -5    8.36    3.42
  -5   6   5   13.10    4.43
   5  -6   5    9.23    3.92
  -5  -6  -5   14.84    4.70
  -5   6   5    8.16    5.05
   5   6  -5   11.87    5.91
  -5  -6  -5   13.18    4.91
  -5   6  -5   14.50    6.08
   5   6   5    9.30    3.51
   5  -6  -5   11.15    3.65
  -5  -6   5    9.31    3.65
   5   6   5    8.57    5.16
  -5  -6   5    6.48    3.20
   5  -6  -5   11.68    5.12
   5  -6  -5   10.64    4.01
   5   6   5   12.52    5.02
  -5  -6   5   13.13    4.52
   5  -6  -5   14.50    3.18
  -5   6   6   17.06    5.75
  -5  -6  -6   15.25    3.63
  -5  -6  -6   18.40    4.79
   5   6  -6   18.54    4.93
  -5   6   6   15.85    5.29
  -5  -6  -6   17.00    5.12
  -5  -6  -6   17.12    5.39
   5  -6   6   13.05    3.98
   5   6  -6   20.54    6.63
   5  -6   6   15.96    5.67
   5  -6   6   13.38    4.28
   5  -6  -6   21.79    4.46
   5   6   6   19.84    5.75
  -5  -6   6    9.98    3.34
  -5  -6   6   13.98    4.76
  -5   6  -6   19.39    6.32
   5  -6  -6   18.85    4.01
   5   6   6   18.62    5.82
  -5  -6   6   14.97    4.33
   5  -6  -6   14.82    5.78
   5   6   6   21.09    3.97
   5  -6  -6   18.38    3.39
   5  -6   7    0.95    4.62
   5  -6   7   -3.25    5.93
   5   6  -7    4.37    6.33
  -5  -6  -7    9.53    3.43
  -5  -6  -7    6.51    4.61
  -5  -6  -7    5.55    5.16
  -5   6   7   -1.80    5.34
  -5  -6  -7    2.65    4.90
  -5   6   7   -6.47    5.45
   5  -6   7   -2.17    3.78
  -5   6  -7    8.44    5.88
   5  -6  -7    6.37    3.12
   5  -6  -7    1.02    3.62
   5  -6  -7    7.11    4.17
   5  -6  -7    4.15    5.67
   5   6   7    2.47    5.82
  -5  -6   7    3.88    3.60
  -5  -6   7    5.29    4.94
   5   6   7    1.47    5.49
   5   6   7    6.95    3.83
  -5  -6   7    0.29    4.37
  -5  -6  -8   15.68    5.59
  -5  -6  -8    7.66    4.70
   5  -6   8  -10.83    6.39
  -5  -6  -8    0.06    5.12
   5   6  -8    6.35    6.86
  -5   6   8  -12.40    6.26
  -5   6   8    2.54    6.06
   5  -6   8   -8.40    5.07
  -5  -6  -8    5.84    3.27
   5  -6   8   -4.88    4.13
  -5  -6   8   -0.85    5.22
   5  -6  -8    3.98    4.17
  -5  -6   8    2.46    5.98
   5   6   8   -0.54    6.74
   5   6   8    2.30    4.21
   5  -6  -8    3.52    3.88
   5  -6  -8    4.88    3.16
   5  -6  -8   -0.35    6.27
  -5   6  -8    9.90    6.45
  -5  -6   8   -0.56    3.70
   5   6   8   -2.12    5.65
  -6   6   0    3.87    3.55
   6   6   0    2.63    1.88
  -6   6   0    4.84    2.13
  -6  -6   0    0.18    2.26
   6   6   0    2.45    1.59
   6  -6   0    3.73    2.18
   6   6   0    0.93    2.57
   6  -6   1   23.21    2.47
  -6  -6  -1   20.20    3.17
  -6   6   1   20.95    2.71
   6   6  -1   22.20    2.46
  -6   6   1   30.69    4.66
  -6  -6  -1   24.71    2.77
  -6  -6  -1   23.74    3.00
   6   6  -1   23.55    2.49
   6   6  -1   21.56    3.32
   6  -6  -1   22.33    2.82
   6   6   1   22.31    2.38
  -6   6  -1   21.38    2.67
   6   6   1   24.02    3.87
  -6   6  -1   26.79    5.01
   6   6   1   21.02    2.08
   6   6  -2    2.70    2.51
  -6   6   2    7.04    3.22
  -6  -6  -2    1.63    2.81
   6   6  -2    0.86    2.08
  -6  -6  -2    0.23    2.39
  -6  -6  -2    3.57    2.33
   6  -6   2    4.27    2.62
   6   6  -2    0.51    2.95
   6  -6   2    1.98    2.23
   6  -6  -2    2.17    1.75
  -6   6  -2   -1.10    3.50
   6   6   2    1.91    1.98
   6   6   2    3.55    3.06
   6   6   2    4.44    1.65
  -6   6  -2    5.80    2.40
   6  -6  -2    3.40    2.16
   6   6  -3    6.48    3.00
   6   6  -3    8.19    3.99
  -6   6   3    8.77    3.63
  -6  -6  -3    9.06    2.62
  -6  -6  -3    8.29    3.04
   6  -6   3    7.71    3.14
   6   6  -3   11.80    2.89
  -6  -6  -3    6.34    3.23
   6  -6   3    6.90    2.70
  -6   6  -3    5.40    4.35
  -6  -6   3   11.14    2.88
   6   6   3    8.16    2.55
   6  -6  -3    9.21    2.77
   6   6   3    8.41    3.71
   6  -6  -3   11.30    2.32
   6   6   3    9.43    2.01
  -6   6  -3    9.03    3.03
  -6  -6  -4   58.63    5.15
  -6   6   4   60.23    6.53
   6   6  -4   69.10    7.12
   6  -6   4   65.07    6.00
   6  -6   4   67.01    5.30
   6  -6   4   65.52    4.76
  -6  -6  -4   63.86    6.12
  -6  -6  -4   60.62    4.49
  -6  -6  -4   59.33    5.49
   6   6  -4   59.42    5.71
   6  -6  -4   66.22    4.55
  -6  -6   4   62.18    4.91
  -6   6  -4   63.32    7.30
   6  -6  -4   66.43    5.03
   6   6   4   61.55    5.58
   6   6   4   63.05    6.53
   6  -6  -4   63.71    6.62
   6   6   4   64.79    3.57
   6  -6  -4   66.92    3.77
   6   6   4   65.57    4.55
  -6  -6   4   58.05    4.04
  -6   6   5   42.40    6.93
   6   6  -5   48.74    7.71
  -6  -6  -5   45.86    5.63
  -6  -6  -5   36.43    5.65
  -6  -6  -5   42.49    4.43
  -6  -6  -5   49.74    6.36
   6  -6   5   48.51    6.78
   6   6  -5   41.52    5.64
   6  -6   5   36.36    4.82
   6  -6   5   37.20    4.38
   6   6   5   38.28    3.63
  -6  -6   5   41.71    4.48
   6  -6  -5   47.02    4.78
   6   6   5   46.32    6.60
   6  -6  -5   44.41    5.28
   6   6   5   44.09    4.78
  -6  -6   5   37.40    4.79
   6  -6  -5   44.05    3.84
   6   6   5   43.38    6.45
  -6  -6   5   35.14    5.43
   6  -6  -5   46.31    7.02
  -6   6  -5   49.76    7.66
   6  -6   6   11.73    5.68
  -6  -6  -6   19.73    5.53
   6   6  -6   24.24    6.64
  -6   6   6   15.57    5.68
  -6  -6  -6   17.35    4.94
  -6  -6  -6   16.29    3.56
   6  -6   6    8.79    4.09
  -6   6   6   10.23    4.96
  -6  -6  -6   18.94    4.82
   6  -6   6   18.30    4.13
   6   6  -6   14.71    4.69
   6  -6  -6   19.30    4.30
   6  -6  -6   21.90    3.50
  -6   6  -6   22.36    6.61
   6   6   6   18.48    2.92
   6   6   6   18.77    3.97
   6   6   6   20.83    5.66
  -6  -6   6   16.69    4.94
   6  -6  -6   17.55    3.86
  -6  -6   6   12.51    3.30
   6   6   6   13.55    5.66
  -6  -6   6   12.62    4.20
   6  -6  -6   18.47    6.11
   6  -6   7    4.70    6.41
   6  -6   7    5.24    4.81
   6   6  -7   10.27    5.51
  -6   6   7   13.17    6.12
  -6  -6  -7   15.27    5.02
  -6  -6  -7   22.81    6.15
  -6   6   7   14.84    6.48
   6   6  -7   18.25    7.17
  -6  -6  -7   12.52    3.65
  -6  -6  -7   14.29    5.38
   6  -6   7   10.74    4.38
  -6  -6   7   10.49    4.93
   6  -6  -7   14.90    6.44
   6  -6  -7   17.01    3.53
   6  -6  -7   15.63    4.51
  -6  -6   7   15.38    4.10
  -6   6  -7   21.74    7.01
   6   6   7   12.10    4.21
   6   6   7   13.57    6.67
   6   6   7   16.64    6.21
   6  -6  -7   21.18    4.33
  -6  -6   7   12.46    5.40
  -6  -6  -8   21.57    5.46
  -6  -6  -8   20.56    3.95
  -6  -6  -8    5.07    5.62
   6  -6   8    8.32    4.66
  -6  -6  -8   24.75    6.18
   6  -6   8   -5.34    7.12
   6  -6   8   -0.96    5.49
  -6   6   8    8.28    6.45
  -6   6   8  -10.54    6.49
   6   6  -8   11.17    7.13
  -6  -6   8    4.33    5.81
   6   6   8   14.50    6.15
   6  -6  -8   10.77    6.51
   6   6   8    6.22    4.49
  -6  -6   8    4.19    5.33
   6   6   8    4.19    7.20
  -6   6  -8   18.02    7.01
  -6  -6   8    7.72    4.06
   6  -6  -8   11.10    4.13
   6  -6  -8    7.57    4.61
   6  -6  -8   11.62    3.62
   7   6   0    7.18    2.86
   7   6   0    6.53    1.90
  -7   6   0    9.00    4.12
  -7   6   0    9.05    2.25
   7  -6   0    7.73    1.85
  -7  -6   0    8.39    2.77
   7  -6   0    6.07    2.31
   7   6   0    6.61    2.18
   7  -6   1   14.22    2.33
   7  -6   1   14.96    2.80
  -7  -6  -1   13.51    2.57
  -7   6   1   13.01    2.58
  -7  -6  -1    9.28    3.04
  -7   6   1   13.90    3.99
   7   6  -1   14.11    2.45
   7   6  -1   14.12    2.25
  -7  -6  -1   10.48    2.71
   7   6  -1   12.40    3.12
  -7   6  -1   19.34    4.81
   7   6   1   11.90    1.97
   7   6   1   13.58    3.70
   7  -6  -1   12.89    2.66
   7   6   1   12.39    2.25
  -7   6  -1   13.40    2.65
  -7   6   2    3.51    3.49
  -7  -6  -2    2.10    2.74
   7   6  -2    1.26    2.70
   7  -6   2    5.91    2.49
  -7  -6  -2    2.03    3.08
   7   6  -2    4.54    2.39
  -7  -6  -2    2.68    2.44
   7  -6   2    5.81    2.71
   7   6   2    5.79    3.40
   7   6   2    3.60    2.23
  -7   6  -2   -0.32    4.08
   7  -6  -2    1.83    2.36
   7   6   2    5.44    1.93
  -7   6  -2    3.06    2.64
   7   6  -3   12.89    3.05
   7   6  -3   10.91    3.37
  -7  -6  -3    9.37    3.91
  -7  -6  -3   13.60    3.56
   7  -6   3   17.90    3.66
  -7   6   3   21.21    4.65
   7  -6   3   10.60    3.13
   7   6  -3   15.44    4.48
  -7  -6  -3   13.36    3.14
   7  -6  -3   12.00    3.06
  -7   6  -3   15.57    3.54
   7   6   3   14.78    2.40
  -7   6  -3   12.06    4.90
   7  -6  -3   14.82    2.60
   7   6   3   17.93    3.03
   7   6   3   12.55    4.27
  -7  -6  -4    4.58    3.91
   7  -6   4    5.81    3.37
   7   6  -4    6.33    3.80
   7  -6   4    9.96    3.79
  -7   6   4    8.40    4.63
  -7  -6  -4    9.83    4.56
   7   6  -4    9.92    5.10
  -7  -6  -4    6.56    3.33
  -7   6  -4    7.97    5.27
  -7  -6   4    6.03    3.33
  -7   6  -4    8.34    3.88
   7  -6  -4    8.47    3.44
   7   6   4   11.05    4.57
   7   6   4    3.73    3.11
   7   6   4    8.49    2.59
   7  -6  -4    9.11    2.79
  -7  -6  -5    6.31    3.58
   7  -6   5    9.72    3.65
  -7  -6  -5   14.30    4.89
   7   6  -5   12.32    6.16
   7   6  -5   14.33    4.80
  -7  -6  -5   12.33    5.36
  -7  -6  -5    3.15    4.03
   7  -6   5    9.77    5.28
  -7   6   5   11.38    5.39
   7  -6   5    7.69    4.13
   7  -6  -5   10.80    5.33
   7  -6  -5   12.08    3.67
  -7  -6   5    5.44    3.72
  -7  -6   5   11.63    3.21
   7   6   5    9.68    3.73
  -7  -6   5   10.20    4.42
  -7   6  -5   12.46    4.51
   7  -6  -5   12.29    4.12
  -7   6  -5   14.09    6.06
   7   6   5    8.64    2.86
   7   6   5   11.91    4.93
   7  -6  -5    9.27    3.13
   7   6   5   12.81    5.27
  -7  -6  -6    4.62    4.49
   7   6  -6    1.04    5.55
  -7   6   6    1.60    4.97
   7   6  -6    3.44    4.54
  -7  -6  -6    8.37    3.44
  -7  -6  -6   -2.22    3.88
  -7  -6  -6   11.67    5.40
   7  -6   6    0.85    3.51
  -7   6   6   -2.66    4.44
   7  -6   6    0.91    4.04
   7  -6   6  -10.21    4.92
   7  -6  -6    1.53    3.55
   7  -6  -6    6.16    3.55
  -7  -6   6   -1.40    4.42
   7   6   6    4.88    3.40
   7   6   6    1.70    2.57
  -7  -6   6    0.34    3.01
   7   6   6    1.52    5.40
   7  -6  -6    5.21    5.30
   7   6   6    1.47    4.57
  -7   6  -6    3.27    5.53
   7  -6  -6    1.48    2.84
  -7  -6   6    1.29    3.77
  -7   6   7   -5.42    5.31
  -7  -6  -7   -0.95    4.44
  -7   6   7    1.75    5.84
  -7  -6  -7    7.66    3.73
  -7  -6  -7   13.94    6.04
   7   6  -7    5.01    6.24
   7  -6   7   -6.81    6.26
   7  -6   7    1.91    3.97
   7  -6   7    1.94    4.82
   7   6  -7    5.08    5.15
  -7  -6  -7    5.21    4.82
   7   6   7    6.85    5.30
  -7  -6   7    8.48    5.10
   7   6   7    4.04    6.35
   7  -6  -7    5.89    3.73
  -7   6  -7    8.40    6.23
   7   6   7    3.28    2.92
  -7  -6   7    0.71    3.36
   7  -6  -7    0.79    5.93
   7  -6  -7    2.78    3.01
   7  -6  -7    4.16    3.95
   7   6   7    7.19    4.03
  -7  -6   7    0.94    4.59
   7  -6   8   -4.59    5.15
  -7  -6  -8    6.19    4.92
   7  -6   8   -0.48    4.15
  -7  -6  -8    3.80    5.37
  -7  -6  -8    7.27    3.57
   7   6  -8    5.99    6.90
  -7   6   8   -3.86    5.91
  -7  -6  -8    6.87    5.72
  -7  -6   8    2.21    3.91
   7   6   8  -11.99    6.58
  -7  -6   8   -4.55    4.99
   7  -6  -8    1.32    3.30
  -7  -6   8    1.00    5.66
   7  -6  -8    1.80    6.29
  -7   6  -8    4.25    6.13
   7  -6  -8    2.92    3.77
   7   6   8    3.63    4.39
   7  -6  -8    1.72    4.06
   7   6   8    7.94    5.91
   8   6   0   15.81    2.67
  -8  -6   0   20.48    2.87
   8  -6   0   15.65    2.26
  -8   6   0   17.68    2.98
  -8   6   0   20.43    4.83
   8  -6   0   16.68    2.97
  -8  -6   0   15.98    3.23
   8   6   0   14.31    2.30
   8   6   0   15.57    3.47
   8  -6   1    7.72    2.43
  -8  -6  -1    8.88    3.03
  -8  -6  -1    7.45    3.39
  -8   6   1    5.22    2.56
   8   6  -1    3.34    2.09
  -8  -6  -1    8.64    2.79
   8   6  -1    6.97    2.41
  -8   6   1    5.98    4.23
   8  -6   1    7.05    2.91
   8   6  -1    5.08    3.10
   8  -6  -1    5.12    2.68
   8   6   1    8.88    2.09
   8   6   1    8.99    2.41
  -8   6  -1    7.80    4.81
  -8   6  -1    6.39    2.68
   8   6   1   11.05    3.99
  -8  -6  -2   10.69    3.30
   8   6  -2    8.56    3.22
  -8   6   2    9.66    4.15
   8  -6   2    8.18    2.82
  -8  -6  -2   10.43    3.04
   8  -6   2   12.75    3.47
  -8   6   2    7.80    2.80
   8   6  -2   10.26    2.77
  -8  -6  -2    8.73    3.72
  -8   6  -2   10.83    3.23
  -8   6  -2    4.93    4.68
   8   6   2    9.33    2.73
   8  -6  -2    8.10    2.81
   8   6   2   11.02    2.32
   8   6   2    6.05    3.86
   8  -6   3   29.07    3.82
   8   6  -3   24.90    4.29
   8  -6   3   27.21    4.11
  -8  -6  -3   29.50    4.99
  -8   6   3   32.57    5.91
  -8  -6  -3   25.63    3.65
   8   6  -3   27.70    3.70
   8   6  -3   30.60    5.20
  -8  -6  -3   22.65    4.18
  -8   6  -3   28.11    5.98
   8   6   3   31.44    3.60
   8   6   3   27.95    3.15
   8   6   3   28.00    4.98
  -8   6  -3   31.35    4.25
   8  -6  -3   34.19    4.46
   8  -6   4   15.95    4.13
   8   6  -4   15.14    4.34
  -8  -6  -4    6.95    4.35
   8  -6   4   13.78    3.63
   8   6  -4   17.93    5.73
  -8   6   4   12.37    5.04
   8   6  -4   12.68    3.99
  -8  -6  -4   11.83    3.61
  -8  -6  -4   12.20    5.07
  -8   6  -4   20.26    6.09
   8   6   4   13.69    5.00
  -8   6  -4   19.96    4.51
   8   6   4   17.84    3.00
   8   6   4   13.97    3.62
   8  -6  -4   17.78    4.04
  -8  -6   4   20.03    3.86
   8  -6  -4   18.90    3.30
  -8   6  -4   15.26    3.81
  -8  -6  -5   32.19    6.12
  -8  -6  -5   19.01    3.93
   8  -6   5   27.78    4.29
   8  -6   5   22.73    5.80
  -8  -6  -5   30.86    5.57
   8   6  -5   31.42    5.39
  -8   6   5   24.78    6.17
   8  -6   5   22.90    4.56
   8   6  -5   35.06    7.04
  -8   6  -5   31.06    5.12
   8  -6  -5   32.59    3.77
   8   6   5   29.49    3.42
   8   6   5   32.14    4.34
   8   6   5   28.35    5.89
   8  -6  -5   30.21    6.50
  -8  -6   5   26.71    4.53
  -8  -6   5   19.95    3.39
   8  -6  -5   29.29    4.58
  -8  -6   5   29.83    5.20
  -8   6  -5   33.27    6.97
  -8  -6  -6   27.12    5.64
  -8  -6  -6   19.21    4.96
  -8  -6  -6   28.43    6.47
  -8   6   6   25.16    5.47
  -8   6   6   18.04    6.18
   8  -6   6   22.30    4.92
   8   6  -6   23.18    5.72
   8  -6   6    7.12    6.02
   8  -6   6   18.46    4.32
   8   6  -6   23.86    6.89
  -8  -6  -6   22.86    3.92
   8   6   6   26.44    5.65
   8   6   6   20.15    5.86
   8   6   6   22.92    3.37
  -8   6  -6   31.32    6.92
   8  -6  -6   27.58    3.86
  -8  -6   6   21.95    4.60
  -8  -6   6   24.01    3.82
   8  -6  -6   25.63    4.56
  -8  -6   6   18.89    5.45
  -8   6  -6   22.93    4.94
   8  -6  -6   25.31    6.60
   8   6   6   28.21    4.31
  -8  -6  -7   20.22    4.20
   8   6  -7   19.38    6.09
   8  -6   7    4.32    6.92
  -8  -6  -7   17.21    5.51
  -8   6   7    9.60    5.95
  -8  -6  -7   21.93    5.53
   8  -6   7    9.68    4.54
   8   6  -7   25.00    7.41
  -8  -6  -7   26.64    6.67
   8  -6   7   12.67    5.23
  -8   6   7   15.98    6.58
   8   6   7   16.62    5.90
  -8   6  -7   20.64    6.86
  -8  -6   7   27.34    6.33
   8   6   7   12.32    6.70
   8   6   7   18.47    3.47
   8   6   7   15.82    4.28
   8  -6  -7   16.19    3.75
   8  -6  -7   14.80    6.73
  -8  -6   7   17.49    4.05
   8  -6  -7   17.61    4.59
  -8  -6   7   15.36    5.12
  -8  -6  -8   20.46    5.67
   8  -6   8  -10.26    7.59
   8   6  -8   14.68    7.66
  -8   6   8    4.44    6.90
   8  -6   8   14.58    4.87
   8  -6   8   11.06    5.78
  -8   6   8    9.64    6.93
  -8  -6  -8   31.34    6.93
  -8  -6  -8   18.41    4.13
  -8   6  -8   17.86    6.91
  -8  -6   8   14.10    5.78
   8   6   8    1.25    7.37
   8  -6  -8   17.30    3.92
   8   6   8   15.73    4.76
   8  -6  -8   18.70    5.07
  -8  -6   8    6.50    6.17
   8  -6  -8    8.38    7.10
  -8  -6   8    9.72    4.18
  -9   6   0    9.59    5.00
   9   6   0    7.22    3.42
   9  -6   0   11.81    2.47
  -9  -6   0    8.72    3.46
   9   6   0    7.87    2.69
   9   6   0   10.40    2.42
  -9   6   0   10.59    2.99
   9  -6   1   23.49    3.53
  -9   6   1   28.90    5.42
   9  -6   1   21.81    2.94
  -9  -6  -1   23.00    4.12
   9   6  -1   23.89    3.20
   9   6  -1   21.89    2.84
  -9  -6  -1   20.95    3.61
  -9  -6  -1   23.30    3.35
   9   6  -1   18.74    3.94
  -9   6   1   18.62    3.19
   9   6   1   18.23    2.67
   9  -6  -1   20.93    3.45
   9   6   1   21.27    3.02
   9   6   1   21.72    4.65
  -9   6  -1   19.27    5.62
   9  -6  -1   23.48    2.58
  -9   6  -1   19.51    3.33
   9  -6   2    1.76    3.54
   9   6  -2    3.42    2.54
  -9   6   2    3.77    2.91
   9   6  -2    5.78    2.87
  -9   6   2    4.78    4.42
  -9  -6  -2    4.45    3.43
  -9  -6  -2    6.83    3.33
  -9  -6  -2    4.32    3.93
   9   6  -2    2.19    3.40
   9  -6   2    0.46    2.73
  -9   6  -2   -0.84    4.80
   9   6   2    2.53    2.39
   9   6   2    3.86    3.03
   9  -6  -2    5.93    3.13
   9   6   2    6.19    4.56
  -9   6  -2    4.85    3.39
   9   6  -3    4.19    3.58
  -9  -6  -3    6.70    4.63
  -9   6   3    7.69    4.68
   9  -6   3    5.45    3.30
  -9  -6  -3    7.81    4.05
   9   6  -3    3.12    3.19
  -9   6   3    3.82    3.33
  -9  -6  -3    5.04    3.52
   9  -6   3    5.26    4.00
   9  -6  -3    8.82    3.53
  -9   6  -3    9.67    5.32
  -9   6  -3    9.33    4.01
   9   6   3    2.02    4.47
   9   6   3    6.35    3.20
   9   6   3    6.95    2.67
   9  -6   4   14.93    4.25
  -9  -6  -4   15.01    3.88
   9   6  -4   10.81    4.51
  -9  -6  -4    9.01    4.80
  -9   6   4   13.01    5.31
   9  -6   4   15.02    3.89
   9   6  -4   16.09    4.41
   9   6  -4   15.10    5.69
  -9  -6  -4   12.15    5.45
   9   6   4   18.20    3.97
  -9   6  -4   15.38    4.09
   9   6   4   15.42    5.56
   9  -6  -4   12.01    3.94
  -9   6  -4   14.20    5.94
  -9   6  -4   13.42    4.72
  -9  -6   4   15.78    3.92
   9   6   4   14.37    3.10
  -9  -6  -5    4.33    3.42
   9  -6   5    1.22    4.90
   9  -6   5    4.51    3.63
   9   6  -5    4.48    4.37
  -9   6   5    1.95    5.03
   9  -6   5    0.99    3.64
  -9  -6  -5   12.56    5.46
   9   6  -5    4.04    5.36
  -9  -6  -5   11.00    5.00
  -9  -6   5    8.82    2.97
   9  -6  -5    2.59    3.82
  -9  -6   5    4.18    3.72
  -9   6  -5    5.59    3.76
   9   6   5    4.97    5.18
   9   6   5    6.49    2.91
  -9  -6   5    3.34    4.06
  -9   6  -5    4.17    4.48
  -9   6  -5    7.04    5.47
   9   6   5    2.24    3.40
   9  -6   6   -4.40    5.59
   9   6  -6    5.14    4.90
   9  -6   6    5.87    4.42
  -9   6   6    1.74    5.45
  -9  -6  -6    6.14    3.73
   9   6  -6    9.68    6.23
  -9  -6  -6   15.03    5.68
   9  -6   6   11.31    4.04
  -9  -6  -6   11.90    6.00
  -9  -6   6    7.37    4.84
  -9  -6   6    6.24    3.26
   9   6   6   12.97    4.12
   9  -6  -6    4.92    3.34
   9   6   6    7.40    3.04
  -9   6  -6    5.71    4.93
   9  -6  -6    2.37    5.48
  -9   6  -6   11.59    5.87
   9  -6  -6    5.85    3.99
  -9  -6   6   13.14    4.60
   9   6   6    2.84    5.75
  -9  -6  -7    2.39    3.62
  -9   6   7   -7.21    5.20
   9   6  -7    4.81    6.37
   9   6  -7    3.83    5.73
  -9  -6  -7    2.14    5.16
  -9  -6  -7    9.89    6.29
   9  -6   7   -8.83    6.36
   9  -6   7    1.06    4.11
   9  -6   7    2.85    4.89
  -9   6   7   -3.97    5.34
   9   6   7    3.38    4.03
   9   6   7   -9.19    6.13
   9  -6  -7    1.53    3.87
   9  -6  -7    0.27    3.30
   9   6   7    6.95    3.24
  -9   6  -7    3.78    5.78
  -9  -6   7   -0.08    3.33
  -9  -6   7    0.44    5.27
   9  -6  -7    4.19    6.17
  -9  -6   7   -0.55    4.44
  10   6   0    3.80    2.53
  10   6   0    3.37    2.91
 -10  -6   0    4.84    3.46
 -10   6   0    5.18    3.10
 -10   6   0    3.33    5.58
  10   6   0    1.82    3.63
 -10  -6   0    6.63    3.88
 -10  -6   0    1.11    3.21
  10  -6   0    1.53    2.60
  10  -6   1   -0.35    2.64
 -10  -6  -1    2.86    4.14
 -10  -6  -1   -1.71    3.48
 -10   6   1    0.07    2.86
 -10   6   1    2.36    5.14
  10   6  -1   -2.06    2.38
  10   6  -1   -1.39    3.78
  10   6  -1   -0.73    2.74
 -10  -6  -1   -2.74    3.31
  10  -6   1   -0.61    3.28
 -10   6  -1    0.55    5.37
  10  -6  -1   -1.64    2.37
  10   6   1   -2.37    2.75
  10  -6  -1    2.05    3.15
  10   6   1    1.78    2.49
  10   6   1    1.54    3.95
 -10   6  -1    1.07    3.24
 -10   6   2    3.12    3.26
  10  -6   2    0.03    3.66
 -10  -6  -2    3.50    3.54
 -10  -6  -2    6.80    4.65
  10   6  -2    4.06    3.74
  10  -6   2    3.71    3.18
 -10   6   2    0.22    4.72
  10   6  -2    2.46    2.81
  10   6  -2    1.14    3.10
 -10  -6  -2    4.79    3.98
  10  -6  -2    0.60    3.48
  10   6   2    1.57    4.72
  10   6   2    1.24    2.60
  10   6   2    1.96    3.28
 -10   6  -2    2.09    5.24
 -10   6  -2    4.74    3.68
 -10  -6  -3   16.25    5.30
  10   6  -3   15.53    4.03
 -10  -6  -3   13.15    3.90
 -10   6   3   15.07    5.16
  10  -6   3   18.80    4.60
  10  -6   3   12.74    3.76
 -10  -6  -3   13.90    4.67
  10   6  -3   14.24    4.33
 -10   6   3   16.58    3.95
  10  -6  -3   15.18    4.11
  10   6   3   13.32    3.06
  10   6   3   16.51    3.83
  10   6   3   17.96    5.28
 -10   6  -3   22.53    4.62
 -10   6  -3   15.65    5.86
 -10   6   4    7.52    5.34
 -10   6   4    8.54    4.16
 -10  -6  -4   10.51    5.68
  10   6  -4    9.42    4.42
 -10  -6  -4    9.14    3.85
  10  -6   4    7.94    4.64
  10  -6   4    8.83    3.77
  10   6  -4   11.17    5.25
  10   6  -4   12.37    4.71
 -10  -6  -4   12.63    5.16
 -10   6  -4    8.84    4.11
 -10   6  -4   11.15    4.70
 -10  -6   4    4.80    3.76
  10   6   4   11.01    5.43
  10   6   4    8.11    3.03
  10   6   4    9.88    3.75
  10  -6  -4    7.62    4.08
 -10   6  -4   14.96    5.73
  10   6  -5    3.69    4.61
 -10  -6  -5   15.88    5.38
  10  -6   5    9.90    4.16
 -10  -6  -5   16.52    5.96
  10  -6   5    5.69    3.76
 -10   6   5    4.69    5.12
  10   6  -5    5.11    5.42
 -10  -6  -5    9.42    3.68
  10  -6   5   -2.18    4.80
  10   6   5    8.99    3.02
 -10  -6   5    7.59    3.85
  10   6   5   13.40    3.97
 -10   6  -5    5.00    3.94
 -10   6  -5    5.90    4.61
 -10   6  -5    8.15    5.39
 -10  -6   5    5.21    4.35
  10   6   5    9.28    5.55
  10  -6  -5    9.91    4.16
 -10  -6  -6   16.48    4.23
  10  -6   6   18.65    4.38
  10  -6   6    1.99    5.92
  10   6  -6   20.43    6.71
 -10  -6  -6   16.75    6.14
 -10   6   6    7.82    5.94
  10   6  -6   12.88    5.55
  10  -6   6    8.08    4.45
 -10  -6  -6   20.38    6.71
 -10   6  -6   10.59    5.21
  10  -6  -6    9.75    6.30
 -10   6  -6   28.92    6.67
  10  -6  -6   13.99    4.52
 -10  -6   6   11.18    5.40
  10   6   6   15.41    3.46
  10   6   6   11.29    6.44
 -10  -6   6    8.90    3.32
  10   6   6   14.30    4.29
 -10  -6   6   15.84    4.88
  10  -6   7   10.33    4.47
 -10  -6  -7   10.34    4.00
 -10  -6  -7   14.79    6.73
  10   6  -7    7.48    5.88
  10   6  -7    7.98    6.64
  10  -6   7   -8.56    6.39
  10  -6   7    9.03    5.16
 -10   6   7    8.53    6.48
 -10  -6  -7   15.90    6.04
  10  -6  -7    2.23    6.39
 -10  -6   7    6.22    4.71
  10   6   7    6.26    3.33
 -10   6  -7   14.84    6.33
 -10  -6   7    4.85    5.60
  10  -6  -7    4.15    4.15
 -10   6  -7   12.22    5.83
 -10  -6   7    4.21    3.51
  10   6   7    7.46    4.25
  10   6   7    1.58    6.59
 -11   6   0   31.34    6.76
 -11   6   0   24.65    4.00
  11  -6   0   30.19    3.48
 -11  -6   0   29.54    4.09
  11   6   0   22.41    4.66
  11   6   0   27.78    3.46
 -11  -6   0   29.30    4.81
 -11  -6   0   29.40    4.26
  11   6   0   28.09    3.84
  11  -6   1   21.44    3.48
  11  -6   1   22.48    3.86
  11   6  -1   24.14    3.72
  11   6  -1   24.78    4.87
 -11   6   1   26.20    6.06
 -11  -6  -1   28.49    5.11
 -11  -6  -1   30.07    4.68
 -11  -6  -1   27.35    4.32
 -11   6   1   21.40    3.85
  11   6  -1   23.90    3.29
 -11   6  -1   25.10    4.30
 -11   6  -1   23.93    6.32
  11   6   1   27.14    3.43
  11  -6  -1   27.84    4.31
  11   6   1   30.75    3.85
 -11  -6   1   26.96    4.50
  11   6   1   19.84    4.71
  11  -6  -1   25.30    3.18
 -11  -6  -2   16.61    4.83
  11  -6   2   22.55    4.27
  11   6  -2   13.91    3.41
 -11   6   2   16.76    3.84
 -11   6   2   18.68    5.62
 -11  -6  -2   23.82    4.23
 -11  -6  -2   21.06    5.56
  11   6  -2   21.62    4.74
  11   6  -2   19.19    3.99
  11  -6   2   19.08    3.67
 -11   6  -2   18.08    4.41
  11   6   2   18.97    3.25
 -11   6  -2   20.79    6.28
  11   6   2   16.74    3.93
  11  -6  -2   23.14    4.33
  11   6   2   22.93    5.85
 -11  -6  -3   12.83    5.59
 -11   6   3   18.38    4.39
 -11  -6  -3   11.46    4.07
  11   6  -3   12.64    4.52
  11  -6   3   12.13    4.61
  11  -6   3   13.75    3.90
 -11   6   3   11.17    5.46
 -11  -6  -3   13.30    5.07
  11   6  -3   13.97    4.25
  11   6   3   11.14    3.90
  11   6   3   16.79    5.70
 -11   6  -3   13.32    4.78
  11  -6  -3   18.55    4.66
 -11   6  -3   16.86    5.87
  11   6   3   13.53    3.25
  11   6  -4   21.89    4.99
 -11  -6  -4   16.17    4.09
 -11  -6  -4   22.31    5.48
 -11  -6  -4   28.45    6.25
 -11   6   4   19.62    5.65
  11  -6   4   20.82    4.03
 -11   6   4   28.82    4.83
  11  -6   4   23.10    5.01
  11   6  -4   25.04    4.89
  11   6   4   22.70    5.80
  11   6   4   30.31    4.23
  11  -6  -4   25.36    4.73
 -11   6  -4   23.24    5.12
  11   6   4   27.14    3.52
 -11   6  -4   25.22    4.59
 -11   6  -4   31.06    6.00
 -11  -6  -5   27.17    6.61
  11   6  -5   25.69    5.36
 -11  -6  -5   22.17    5.98
 -11   6   5   28.90    5.09
 -11   6   5   18.20    6.01
 -11  -6  -5   18.31    4.13
  11   6  -5   18.73    6.01
  11  -6   5   18.94    4.27
  11  -6   5   15.72    5.20
  11   6  -5   23.97    5.73
 -11   6  -5   22.91    4.69
 -11   6  -5   22.11    5.47
 -11  -6   5   14.84    5.19
  11   6   5   22.28    6.32
  11   6   5   21.21    4.26
 -11   6  -5   30.95    6.30
  11  -6  -5   19.51    4.59
 -11  -6   5   21.49    4.42
  11   6   5   19.89    3.48
  11  -6   6   -5.64    5.52
  11   6  -6   10.48    5.80
  11  -6   6    5.81    5.25
  11  -6   6    5.23    4.09
 -11  -6  -6    5.88    4.07
 -11   6   6    1.03    5.61
  11   6  -6    6.51    6.16
 -11  -6  -6    3.22    5.91
 -11   6   6    8.40    5.09
 -11  -6  -6    7.70    6.47
  11   6   6    8.25    3.36
  11  -6  -6    3.81    4.35
  11   6   6    5.07    4.05
 -11   6  -6   14.40    5.80
 -11  -6   6    2.98    2.97
 -11  -6   6    6.01    5.10
 -11  -6   6    3.51    4.45
 -11   6  -6    5.81    4.44
  11   6   6    2.13    6.23
 -11   6  -6    5.06    5.23
  11   6  -7    3.89    6.72
 -11   6   7   -1.36    5.90
 -11  -6  -7   12.43    6.97
 -11  -6  -7    5.69    5.93
  11   6  -7    4.15    6.03
  11  -6   7    3.29    5.78
  11  -6   7  -11.72    6.09
 -11  -6  -7    6.41    3.91
  11  -6   7    0.45    4.29
 -11   6   7    8.98    5.22
  11  -6  -7    0.67    6.56
 -11  -6   7   -0.14    4.49
 -11   6  -7    9.58    6.01
  11   6   7    0.79    6.80
 -11  -6   7   -7.25    5.06
  11  -6  -7   -1.18    4.43
 -11  -6   7    4.11    3.58
 -11   6  -7    0.95    5.29
  11   6   7    1.91    3.21
  11   6   7   -4.49    4.15
  12   6   0   10.43    4.82
  12  -6   0    7.91    3.10
 -12   6   0   10.28    6.56
  12   6   0    5.03    3.13
  12   6   0    5.19    3.61
 -12  -6   0    8.58    4.34
 -12  -6   0   10.80    4.83
 -12   6   0    5.77    3.62
  12   6  -1    3.58    4.54
 -12   6   1    4.84    3.53
 -12  -6  -1    9.31    4.65
  12   6  -1    6.89    3.67
 -12   6   1    8.45    5.96
 -12  -6  -1   11.00    4.25
  12   6  -1    5.78    3.16
 -12  -6  -1    8.94    5.20
  12  -6   1    8.46    3.40
  12  -6   1    8.61    3.94
  12   6   1    2.21    4.60
 -12   6  -1    4.10    3.95
  12   6   1    2.14    3.48
  12  -6  -1    2.39    2.92
  12   6   1    5.65    3.10
 -12  -6   1    1.58    4.37
 -12  -6  -2    6.63    5.01
 -12   6   2    4.75    3.82
 -12  -6  -2    9.55    5.72
 -12  -6  -2   11.01    4.19
  12  -6   2   14.27    4.33
  12  -6   2   13.44    3.67
  12   6  -2   14.16    3.65
 -12   6   2   11.90    5.68
  12   6  -2   14.53    4.90
  12   6  -2   12.40    4.05
 -12   6  -2   17.47    5.92
  12   6   2   13.53    3.36
  12  -6  -2   13.09    3.04
 -12   6  -2    9.69    4.46
  12   6   2   11.51    5.91
  12  -6  -2    8.68    4.24
  12   6   2    9.68    3.91
  12  -6   3    2.31    4.05
  12   6  -3   -0.29    3.84
 -12  -6  -3    9.62    4.81
  12  -6   3    4.51    3.53
 -12   6   3    5.16    4.07
  12   6  -3    6.36    4.49
 -12  -6  -3   -3.20    5.21
 -12   6   3    1.35    5.15
 -12  -6  -3    4.85    4.05
  12  -6  -3    7.66    4.28
 -12   6  -3   11.96    5.35
 -12   6  -3    0.51    4.34
  12   6   3   12.01    3.83
  12   6   3    2.66    5.34
  12   6   3    3.56    3.02
 -12   6   4    8.47    4.33
  12  -6   4    9.55    4.77
  12   6  -4   14.01    4.83
 -12  -6  -4    3.71    3.98
  12  -6   4    6.46    3.73
  12   6  -4    6.59    4.52
 -12   6   4    3.86    4.99
 -12  -6  -4    1.15    5.25
 -12  -6  -4    6.58    5.78
  12   6   4    5.23    5.36
  12  -6  -4    9.55    4.43
  12   6   4    7.21    3.59
  12   6   4    9.45    3.17
 -12   6  -4    5.18    4.29
 -12   6  -4   15.29    5.29
 -12   6  -4    1.07    4.60
 -12   6   5    9.17    4.61
 -12  -6  -5   -0.46    3.83
  12  -6   5    9.26    5.14
  12   6  -5    7.03    5.09
  12  -6   5    5.02    3.84
  12   6  -5    8.56    5.36
 -12  -6  -5   10.59    6.52
  12   6  -5    1.06    5.90
 -12  -6  -5    8.36    5.99
 -12   6   5   -1.02    5.42
 -12  -6   5   11.03    4.15
  12   6   5    6.03    3.18
 -12   6  -5    5.02    5.20
  12  -6  -5   -0.64    4.11
  12   6   5    4.65    5.95
  12   6   5    3.29    3.92
 -12   6  -5   17.44    5.80
 -12   6  -5    4.80    4.44
 -12   6   6    3.09    4.61
  12  -6   6    7.16    5.45
  12  -6   6    1.99    4.00
 -12  -6  -6    7.24    6.00
  12   6  -6    3.54    5.39
 -12   6   6    2.21    5.66
  12  -6   6  -13.08    5.55
 -12  -6  -6   10.18    6.80
 -12  -6  -6    5.78    4.07
  12   6  -6    4.85    6.51
  12   6   6    4.29    4.05
  12   6   6    1.16    3.20
 -12  -6   6    2.42    4.60
 -12  -6   6   11.99    3.36
 -12   6  -6   -2.21    4.61
 -12  -6   6    5.96    5.39
 -12   6  -6    4.06    5.50
 -12   6  -6    9.07    5.42
  12  -6  -6    7.43    4.48
  12   6   6   -0.63    6.38
  13  -6   0   31.61    3.84
 -13   6   0   31.55    7.23
 -13   6   0   26.13    4.73
  13  -6   0   29.30    4.09
  13   6   0   28.84    3.90
  13   6   0   32.42    4.41
 -13  -6   0   31.72    5.77
 -13  -6   0   34.19    5.26
  13   6   0   29.91    5.56
  13  -6   1   41.21    4.35
  13  -6   1   35.02    4.50
 -13   6   1   31.83    4.88
 -13  -6  -1   39.82    6.21
  13   6  -1   36.83    4.13
  13   6  -1   35.42    4.56
 -13  -6  -1   39.68    5.64
 -13   6   1   27.20    6.66
 -13  -6  -1   32.25    4.98
  13   6  -1   36.91    5.78
 -13   6  -1   35.07    5.02
  13   6   1   36.19    4.52
  13  -6  -1   38.50    3.94
 -13  -6   1   39.62    5.45
  13   6   1   33.73    3.92
 -13   6  -1   50.11    7.66
  13   6   1   36.97    6.05
  13   6  -2   26.54    4.06
 -13   6   2   27.16    6.41
  13  -6   2   29.38    4.01
  13   6  -2   32.40    5.53
 -13  -6  -2   28.96    4.72
 -13  -6  -2   33.86    6.26
  13   6  -2   32.19    4.60
  13  -6   2   25.67    4.50
 -13   6   2   24.77    4.69
 -13  -6  -2   37.27    5.91
 -13   6  -2   31.64    5.26
  13   6   2   32.10    3.80
 -13   6  -2   41.58    6.65
  13  -6  -2   30.56    5.04
  13   6   2   30.08    6.30
  13  -6  -2   31.21    3.45
  13   6   2   32.08    4.52
  13   6  -3   28.00    4.80
 -13   6   3   25.13    4.55
  13  -6   3   24.18    4.72
  13   6  -3   26.65    5.31
 -13   6   3   18.63    5.94
  13  -6   3   22.56    3.98
 -13  -6  -3   25.11    4.43
 -13  -6  -3   34.86    6.05
 -13  -6  -3   22.93    6.21
  13   6   3   24.79    4.26
  13   6   3   25.37    6.26
  13  -6  -3   27.67    5.02
  13   6   3   27.73    3.74
 -13   6  -3   24.37    5.02
 -13  -6  -4   11.57    4.43
 -13  -6  -4   19.79    6.22
 -13   6   4   19.12    4.83
  13  -6   4   18.21    5.01
  13   6  -4   21.64    5.40
  13  -6   4   14.05    4.10
 -13   6   4    9.99    5.62
 -13  -6  -4   24.87    6.85
  13   6  -4   20.82    5.17
 -13   6  -4   27.42    5.78
 -13   6  -4   13.16    5.16
 -13   6  -4   14.27    5.31
  13   6   4   15.15    3.70
  13  -6  -4   18.83    5.05
  13   6   4   16.97    6.10
  13   6   4   21.32    4.39
 -13  -6  -5   15.41    6.79
  13   6  -5   10.67    5.30
 -13   6   5    2.44    4.74
 -13  -6  -5   13.91    6.34
  13  -6   5   10.31    4.27
 -13   6   5    2.38    5.75
  13   6  -5   10.78    5.40
 -13  -6  -5   18.36    4.76
  13  -6   5    4.29    5.17
  13   6   5    3.59    3.90
  13   6   5   12.76    3.45
 -13  -6   5   15.96    4.30
 -13   6  -5    4.53    5.11
 -13   6  -5   10.78    5.63
  13   6   5    6.73    6.29
  13  -6  -5    9.15    4.66
 -13   6  -5   11.51    5.85
  13  -6   6    3.89    5.26
 -13  -6  -6    2.53    6.32
 -13   6   6    2.63    5.99
 -13  -6  -6    9.28    6.88
 -13   6   6    6.59    5.05
 -13  -6  -6    4.54    4.23
  13   6  -6    8.45    5.68
  13  -6   6    5.62    4.18
  13   6   6    3.15    6.50
 -13   6  -6    2.06    5.65
 -13   6  -6    7.86    5.14
  13  -6  -6    0.25    4.40
  13   6   6    8.60    4.28
 -13  -6   6    8.50    4.91
  13   6   6   12.19    3.46
 -13  -6   6   10.87    5.81
  14   6   0    9.56    3.28
  14   6   0    6.23    3.72
  14   6   0   10.42    4.66
  14  -6   0    3.21    3.49
  14  -6   0    2.24    3.13
 -14  -6   0    2.14    4.49
 -14   6   0   -0.71    3.97
 -14  -6   0   -0.05    4.90
 -14   6   1    3.48    4.02
  14   6  -1    3.23    3.21
 -14   6   1   -5.24    5.95
  14   6  -1   12.68    4.01
  14  -6   1    6.28    3.20
  14   6  -1   10.94    4.75
 -14  -6  -1    8.42    4.94
 -14  -6  -1    0.92    4.27
 -14  -6  -1   11.20    5.41
  14  -6   1    9.46    3.77
 -14   6  -1    5.62    4.33
  14   6   1    6.13    3.27
 -14  -6   1    6.75    4.74
  14   6   1   11.04    5.38
  14  -6  -1    5.64    2.93
  14   6   1    6.92    3.66
 -14   6   2    1.58    3.97
  14   6  -2    4.18    4.00
 -14  -6  -2    4.33    4.19
 -14   6   2   -4.84    5.58
  14  -6   2    7.04    3.97
 -14  -6  -2    2.30    5.11
  14   6  -2    7.91    4.68
  14  -6   2    4.45    3.30
 -14  -6  -2    5.32    5.66
  14   6  -2   -2.55    3.28
 -14   6  -2    2.96    4.32
  14  -6  -2    3.68    2.77
  14   6   2    9.27    5.64
  14   6   2    6.14    3.81
  14   6   2    6.26    3.24
 -14   6   3   -3.30    5.30
 -14   6   3   -1.50    4.19
  14   6  -3    2.94    4.82
 -14  -6  -3    6.17    5.80
  14  -6   3    1.82    3.45
  14   6  -3    6.80    4.33
 -14  -6  -3    3.60    4.36
 -14  -6  -3    1.43    6.01
  14  -6   3    4.70    4.32
  14  -6  -3    0.32    4.40
  14   6   3   -2.37    5.57
  14  -6  -3    2.63    2.92
  14   6   3    8.61    4.11
  14   6   3    2.33    3.14
 -14   6  -3    3.17    4.69
 -14   6   4    3.60    4.49
 -14  -6  -4    5.79    6.64
  14  -6   4    1.84    4.54
 -14   6   4   -1.49    5.47
 -14  -6  -4    5.43    6.39
  14   6  -4   -1.38    4.79
  14  -6   4    2.71    3.86
 -14  -6  -4    1.71    4.59
  14   6  -4    6.92    5.23
  14   6   4    3.70    3.37
 -14   6  -4   -4.77    4.73
 -14   6  -4    4.32    5.19
  14   6   4    4.98    4.10
  14  -6  -4    4.31    4.72
  14   6   4    1.63    6.00
  14   6  -5   -0.66    5.18
 -14  -6  -5   -2.51    4.56
  14  -6   5    3.04    5.06
  14  -6   5   -1.11    3.87
 -14  -6  -5    2.57    6.64
  14   6  -5   10.12    5.63
 -14   6   5   -5.79    5.45
 -14   6   5    1.81    4.59
 -14  -6  -5    1.69    6.45
  14  -6  -5    2.05    4.46
 -14  -6   5    7.58    4.20
 -14   6  -5   -4.18    5.26
  14   6   5    5.97    3.97
 -14   6  -5   -8.81    5.16
  14   6   5   -2.85    6.23
  14   6   5    1.78    3.24
 -14   6   6    3.36    4.99
  14  -6   6   -0.60    5.21
 -14  -6  -6   11.19    7.23
 -14   6   6   -2.13    5.99
  14  -6   6    9.52    4.49
 -14  -6  -6    2.24    6.66
 -14  -6  -6    2.98    4.43
  14   6  -6   10.52    6.12
  14  -6  -6   -2.33    4.60
 -14  -6   6    0.38    4.61
  14   6   6    1.91    3.40
 -14   6  -6    5.24    6.02
  14   6   6   -3.22    6.63
 -14   6  -6    1.75    5.99
  14   6   6    1.79    4.18
 -14  -6   6   -0.29    5.34
 -15   6   0   10.62    4.38
  15  -6   0   12.70    3.69
 -15  -6   0   10.62    5.36
  15  -6   0   13.13    3.39
  15   6   0   18.64    5.03
 -15  -6   0    9.69    4.93
  15   6   0    9.16    3.52
  15   6   0   14.67    4.21
  15   6  -1   24.07    4.46
 -15   6   1   16.96    4.69
  15  -6   1   24.95    3.81
 -15  -6  -1   26.24    6.14
  15  -6   1   27.26    4.19
 -15  -6  -1   22.86    4.89
  15   6  -1   23.79    4.00
  15   6  -1   33.47    5.63
 -15  -6  -1   28.58    5.81
  15   6   1   24.23    5.83
 -15  -6   1   18.89    5.24
  15   6   1   23.38    3.94
  15  -6  -1   28.26    3.57
 -15   6  -1   19.90    4.88
  15   6   1   33.37    4.59
 -15  -6  -2   31.59    5.36
  15   6  -2   38.50    6.15
 -15   6   2   27.42    5.36
 -15  -6  -2   30.08    6.41
  15  -6   2   38.43    4.94
  15   6  -2   33.24    4.54
  15   6  -2   39.86    5.23
  15  -6   2   30.73    4.26
 -15  -6  -2   32.19    6.86
  15   6   2   28.91    4.09
  15   6   2   31.36    6.47
  15  -6  -2   26.29    3.46
 -15   6  -2   22.10    5.29
  15   6   2   42.26    5.11
 -15  -6  -3   20.18    6.79
 -15   6   3    3.31    5.81
 -15  -6  -3   13.42    4.90
 -15   6   3   16.02    5.15
  15  -6   3   19.52    4.20
 -15  -6  -3   18.85    6.81
  15   6  -3   22.43    4.35
  15  -6   3   18.67    4.78
  15   6  -3   19.27    4.96
  15   6  -3   20.57    5.55
  15   6   3   14.60    4.56
  15  -6  -3   18.25    3.43
  15   6   3   14.77    6.65
 -15   6  -3   14.33    5.31
  15   6   3   19.30    3.80
 -15   6   4   -3.12    5.75
  15  -6   4   10.52    3.99
 -15   6   4   10.81    5.16
  15   6  -4   18.95    5.66
  15  -6   4    3.57    4.78
  15   6  -4   10.12    5.27
 -15  -6  -4    5.01    4.77
 -15  -6  -4    6.42    6.76
 -15  -6  -4   11.10    7.05
 -15   6  -4    8.18    5.87
  15   6   4   14.22    6.66
 -15   6  -4   11.93    6.01
  15  -6  -4    6.54    4.91
  15   6   4   11.17    3.66
  15   6   4   12.61    4.50
 -15  -6  -5    9.94    7.25
 -15   6   5   -5.83    5.67
 -15   6   5    1.47    4.77
  15   6  -5   10.71    5.58
 -15  -6  -5    8.49    5.03
  15   6  -5   10.13    5.59
  15  -6   5    8.50    4.18
  15  -6   5   14.67    5.41
 -15  -6  -5    7.17    7.05
 -15  -6   5   12.71    4.35
 -15   6  -5   -2.09    5.75
  15   6   5   10.24    4.68
  15   6   5    6.58    3.66
  15   6   5    6.44    6.53
  15  -6  -5   -1.31    4.78
 -15   6  -5   -0.38    5.93
 -16  -6   0   -6.77    5.25
 -16   6   0    1.94    4.64
  16  -6   0    3.08    3.63
  16   6   0    1.66    3.41
  16   6   0   13.46    4.85
 -16  -6   0    6.08    5.04
  16  -6   0    4.78    3.18
  16   6   0    2.82    4.22
  16   6  -1   12.83    4.59
 -16  -6  -1    3.26    4.67
  16   6  -1    4.81    3.69
  16  -6   1    9.20    3.92
  16  -6   1    4.57    3.40
 -16   6   1   -3.16    4.52
  16   6  -1   15.45    4.95
 -16  -6  -1   -2.33    5.70
 -16  -6  -1    5.13    5.80
 -16   6  -1    3.43    4.78
  16  -6  -1   11.54    3.60
 -16  -6   1    2.63    5.19
  16   6   1    9.51    4.32
  16   6   1    9.87    3.75
  16  -6  -1   12.24    3.30
 -16  -6   1    1.66    5.33
  16   6   1   12.91    5.59
 -16  -6  -2    3.21    6.32
 -16   6   2    6.43    5.19
 -16  -6  -2   -1.57    6.11
  16  -6   2    1.93    3.50
  16   6  -2   11.04    5.45
  16   6  -2    6.55    4.55
  16   6  -2    7.09    3.93
 -16  -6  -2    5.73    4.99
  16  -6   2    5.40    4.09
 -16   6  -2    0.80    4.90
  16   6   2    9.96    3.66
  16   6   2    5.45    5.92
  16   6   2    7.24    4.37
  16  -6  -2    3.63    3.00
 -16  -6  -3    5.12    6.67
 -16   6   3    2.63    5.04
  16  -6   3    2.17    3.76
  16   6  -3    9.69    4.87
  16  -6   3    8.51    4.57
  16   6  -3   11.53    5.24
 -16  -6  -3    1.64    6.70
  16   6  -3    5.24    4.02
 -16  -6  -3   -0.70    4.82
 -16   6  -3    5.18    5.18
  16   6   3    3.47    4.56
  16  -6  -3    8.52    3.18
  16   6   3    3.01    6.20
  16   6   3    7.31    3.61
  16  -6   4    6.35    4.00
 -16  -6  -4   -3.66    6.63
 -16  -6  -4    4.08    6.81
  16  -6   4   -0.12    4.61
  16   6  -4    8.39    5.40
 -16  -6  -4    1.69    4.75
 -16   6   4    6.77    5.21
  16   6  -4    1.35    5.15
  16   6   4    3.25    4.46
 -16   6  -4    3.15    6.03
 -16   6  -4    1.29    5.73
  16   6   4   15.04    6.71
  16   6   4    1.75    3.48
  17   6   0   13.42    4.07
  17   6   0   21.55    5.30
 -17   6   0    5.52    5.07
  17   6   0   22.31    4.78
 -17  -6   0   14.73    5.78
 -17  -6   0    7.47    5.96
  17  -6   0   16.30    3.81
  17  -6   0   14.11    3.54
  17   6  -1   20.27    4.15
 -17  -6  -1   14.19    6.47
 -17   6   1   16.37    5.50
  17  -6   1   15.50    3.95
 -17  -6  -1    9.60    5.10
  17  -6   1   18.93    4.18
  17   6  -1   27.65    5.58
  17   6  -1   26.27    5.20
 -17  -6  -1   13.33    6.46
  17  -6  -1   24.53    4.03
  17  -6  -1   16.63    3.49
  17   6   1   18.27    4.12
  17   6   1   24.92    6.06
 -17  -6   1   12.23    5.72
 -17  -6   1    4.44    5.88
 -17   6  -1   13.38    5.59
  17   6   1   22.13    4.83
 -17  -6  -2    9.42    5.08
  17  -6   2   13.32    4.38
 -17  -6  -2    5.12    6.47
 -17   6   2    2.16    5.22
 -17  -6  -2    8.42    6.95
  17   6  -2   10.24    4.33
  17  -6   2    8.71    3.75
  17   6  -2   13.15    5.51
  17   6  -2   12.84    4.93
 -17   6  -2    4.85    5.30
  17   6   2   14.74    4.66
  17   6   2   20.23    6.24
  17   6   2   13.99    3.93
  17  -6  -2   11.65    3.24
 -17  -6  -3    1.93    6.78
  17   6  -3   15.40    5.40
  17  -6   3    8.04    4.55
  17   6  -3    8.10    4.18
  17   6  -3   13.06    5.04
 -17   6   3    3.31    5.45
 -17  -6  -3    1.42    4.91
  17  -6   3    6.59    3.80
 -17  -6  -3    5.63    7.17
  17   6   3   13.23    4.99
  17   6   3    7.30    3.67
  17   6   3   13.31    6.48
 -17   6  -3    6.37    5.43
  17  -6   4   11.97    5.21
  17  -6   4    6.97    4.15
 -17  -6  -4    5.93    7.42
  17   6  -4   14.30    5.53
  17   6  -4   13.02    5.93
 -17  -6  -4   -0.54    5.39
 -17  -6  -4   -0.95    7.17
 -17   6   4    7.23    5.60
 -17   6  -4    0.94    6.20
  17   6   4    5.26    6.55
 -17   6  -4   17.36    6.93
  17   6   4    2.97    3.77
  17   6   4    8.81    5.10
 -18  -6   0   -3.69    5.64
  18  -6   0    7.67    3.44
  18   6   0   18.02    5.25
  18   6   0   13.13    4.69
 -18  -6   0   -6.77    5.79
 -18   6   0    3.09    5.33
  18  -6   0    8.84    3.64
  18   6   0    2.81    4.01
  18   6  -1    4.22    3.96
 -18   6   1   -4.37    5.16
  18  -6   1    6.11    3.77
  18   6  -1    5.23    4.57
 -18  -6  -1   -3.24    6.07
 -18  -6  -1   -6.40    6.29
 -18  -6  -1   -3.33    4.89
  18   6  -1   16.93    5.09
  18  -6   1    5.69    4.00
  18   6   1   13.55    5.39
  18   6   1    6.75    4.63
 -18  -6   1    1.35    5.63
  18  -6  -1    7.88    3.37
 -18  -6   1    1.66    5.73
  18   6   1    3.22    3.65
 -18   6  -1    1.99    5.31
  18  -6  -1    8.43    3.71
 -18  -6  -2    0.59    5.36
  18  -6   2    6.79    4.20
 -18   6   2   -5.77    5.32
  18   6  -2    2.19    4.07
 -18  -6  -2    5.11    7.11
 -18  -6  -2   -4.46    6.49
  18   6  -2    6.23    4.74
  18  -6   2    0.47    3.48
  18   6   2    4.05    3.84
  18  -6  -2    5.16    3.21
  18   6   2   11.51    6.19
 -18   6  -2   -0.07    5.43
  18   6   2    6.40    4.63
 -19  -6   0   -3.06    5.97
  19  -6   0    9.23    3.48
  19   6   0   15.17    5.15
  19   6   0    9.77    4.48
 -19   6   0    4.46    5.87
  19   6   0   23.19    5.59
 -19  -6   0   10.11    5.40
  19  -6   0   18.41    4.07
 -19  -6   0   -3.68    6.14
   0   7   0    3.21    3.03
   0  -7   0    2.66    1.57
   0  -7  -1   23.99    2.27
   0  -7  -1   24.99    2.54
   0   7   1   30.92    4.00
   0   7  -1   28.46    4.66
   0  -7  -1   25.06    2.92
   0  -7   1   27.39    2.19
   0  -7  -2   20.11    2.90
   0  -7   2   27.65    3.16
   0   7  -2   17.12    3.74
   0   7   2   23.78    3.81
   0  -7  -2   22.38    2.58
   0  -7  -2   23.28    3.02
   0   7  -2   21.77    3.07
   0  -7   2   23.91    2.48
   0   7   3   13.20    3.48
   0  -7  -3   11.98    2.64
   0  -7   3   13.58    3.07
   0  -7   3   13.10    2.52
   0   7  -3   14.25    3.11
   0   7  -3   10.81    3.97
   0  -7  -3   11.88    2.51
   0   7   3   13.80    3.05
   0  -7   3   15.35    2.93
   0  -7  -3   13.02    2.98
   0   7  -4   14.10    4.80
   0  -7   4   15.05    3.01
   0  -7  -4   14.86    3.43
   0   7   4   14.80    4.10
   0  -7  -4   14.85    3.95
   0  -7   4   14.02    3.42
   0   7  -4   17.31    3.86
   0  -7  -4   13.41    3.02
   0  -7   4   15.46    3.76
   0   7   4   17.52    4.00
   0  -7  -4    8.28    3.54
   0  -7   5   27.96    3.89
   0  -7  -5   30.05    3.84
   0  -7  -5   32.29    5.06
   0   7   5   33.34    5.43
   0   7  -5   33.61    6.57
   0  -7  -5   26.32    4.59
   0  -7   5   30.01    4.29
   0  -7  -5   33.99    5.82
   0  -7   5   32.71    5.15
   0   7   5   34.01    6.15
   0  -7  -6   30.27    5.50
   0   7   6   23.42    6.10
   0  -7   6   24.32    4.05
   0   7   6   30.33    6.60
   0  -7  -6   24.45    5.99
   0  -7   6   23.05    5.80
   0  -7   6   23.75    4.59
   0  -7  -6   23.27    4.96
   0   7  -6   28.42    6.96
   0  -7  -6   24.99    3.75
   0   7   7   37.36    7.30
   0  -7  -7   49.95    6.04
   0  -7   7   38.07    6.92
   0  -7  -7   44.31    5.77
   0   7  -7   38.58    7.74
   0  -7  -7   43.59    7.03
   0  -7   7   35.36    5.48
   0   7   7   42.54    7.85
   0  -7  -7   40.58    4.32
   0  -7   7   36.27    5.10
   0  -7   8   19.37    7.12
   0  -7  -8   29.28    4.34
   0  -7  -8   35.27    5.37
   0   7  -8   28.61    8.19
   0  -7   8   17.31    6.00
   0   7   8   24.81    7.84
   0  -7   8   13.93    5.04
   0  -7  -8   20.53    7.01
   0  -7  -8   31.84    5.75
   0   7   8   15.47    7.75
   1  -7   0   28.11    2.48
   1   7   0   26.21    2.78
   1   7   0   31.06    4.53
  -1   7   0   31.43    4.52
  -1   7   1   12.92    3.24
   1   7  -1   12.53    3.40
  -1  -7  -1   11.54    2.29
   1  -7   1   15.14    1.93
  -1  -7  -1   12.13    1.99
  -1  -7  -1   12.38    2.18
   1   7  -1   14.04    2.25
   1  -7  -1   13.19    2.12
  -1  -7   1   15.98    2.08
  -1  -7   1   16.33    1.94
  -1   7  -1   16.98    3.91
   1  -7  -1   11.85    1.94
   1  -7  -1   15.08    1.86
   1   7   1   15.69    3.25
   1   7   1   13.58    2.55
  -1   7   2   34.50    4.07
   1  -7   2   37.88    3.20
   1   7  -2   38.20    3.40
  -1  -7  -2   38.03    2.96
  -1  -7  -2   35.48    3.67
  -1  -7  -2   38.91    3.34
   1  -7   2   37.34    2.99
   1   7  -2   34.13    4.78
   1  -7   2   36.60    3.31
  -1   7  -2   35.59    3.27
   1   7   2   36.24    3.96
   1  -7  -2   36.63    3.50
   1  -7  -2   33.78    2.77
   1  -7  -2   34.68    3.12
   1   7   2   36.82    3.75
  -1  -7   2   37.37    3.18
  -1   7  -2   33.67    4.88
  -1  -7   2   38.86    2.87
  -1   7   3    6.96    3.14
  -1  -7  -3    8.75    2.93
   1  -7   3    9.17    2.42
   1  -7   3    8.36    2.63
   1   7  -3    9.35    2.96
  -1  -7  -3    7.62    2.56
  -1  -7  -3    7.41    2.41
   1  -7   3   10.53    2.85
  -1   7   3   11.75    2.92
   1   7  -3   10.32    3.85
   1  -7  -3    8.63    2.32
   1  -7  -3    6.67    2.38
  -1  -7   3   10.10    2.43
  -1   7  -3   10.34    2.96
   1   7   3    9.38    3.10
  -1  -7   3   10.60    2.68
   1  -7  -3   12.16    2.95
  -1   7  -3    9.49    3.92
   1   7   3    9.71    3.22
  -1  -7   3   12.70    2.98
   1  -7   4   11.74    3.65
  -1   7   4   11.02    3.97
  -1   7   4   14.73    3.84
  -1  -7  -4    9.28    3.18
   1   7  -4   14.63    3.90
   1   7  -4    9.48    4.69
  -1  -7  -4   12.79    4.07
   1  -7   4   14.23    3.34
  -1  -7  -4    7.26    3.54
   1  -7   4   10.73    2.93
  -1  -7  -4    9.91    2.89
  -1  -7   4   19.19    3.45
  -1   7  -4   11.11    4.64
   1   7   4   16.43    4.02
  -1  -7   4   11.20    2.91
   1  -7  -4   12.38    3.52
   1   7   4   13.89    4.29
   1  -7  -4   12.22    3.26
   1  -7  -4   10.57    3.87
   1  -7  -4   15.79    2.98
  -1  -7   4   14.81    3.75
   1  -7   5    5.83    3.57
   1  -7   5    2.96    3.29
  -1   7   5    4.98    4.53
  -1   7   5    8.07    4.83
   1   7  -5    1.66    4.03
  -1  -7  -5   -0.09    3.76
  -1  -7  -5    4.88    4.16
   1  -7   5    9.80    4.50
   1   7  -5    7.62    5.31
  -1  -7  -5    3.84    3.20
  -1  -7  -5    7.95    4.66
   1  -7  -5    5.26    4.05
   1  -7  -5    7.24    4.60
   1   7   5    2.97    4.78
  -1  -7   5    3.75    3.46
   1   7   5   10.20    4.83
  -1  -7   5    5.52    4.10
  -1  -7   5   10.32    3.23
  -1   7  -5    6.27    5.07
   1  -7  -5    3.31    3.24
   1  -7  -5   -0.63    3.59
   1  -7   6    0.23    3.82
   1  -7   6    4.67    3.67
  -1   7   6    3.20    5.37
   1   7  -6    1.31    5.54
  -1  -7  -6   -2.09    4.59
  -1  -7  -6    3.37    3.33
  -1   7   6   -6.34    5.07
  -1  -7  -6    6.39    4.38
   1  -7   6    3.76    4.90
  -1  -7  -6    6.48    4.75
   1  -7  -6    3.46    5.04
   1  -7  -6    0.81    4.30
  -1  -7   6    2.10    3.25
  -1   7  -6    3.37    5.27
  -1  -7   6    1.86    4.63
   1   7   6   -0.04    5.20
   1   7   6    2.44    5.26
   1  -7  -6    4.57    4.12
  -1  -7   6   -1.03    3.89
   1  -7  -6    5.60    3.50
   1   7  -7    6.26    6.00
   1  -7   7   -2.47    4.31
  -1  -7  -7    8.86    4.97
   1  -7   7    1.80    5.46
  -1  -7  -7    7.16    3.23
  -1   7   7    4.81    5.77
   1  -7   7   -3.60    3.74
  -1  -7  -7    8.49    4.72
  -1  -7  -7    1.47    4.92
  -1   7   7  -10.57    5.63
   1   7   7    1.98    5.71
   1  -7  -7    8.77    4.55
  -1  -7   7    0.53    5.26
  -1  -7   7    3.59    4.48
   1  -7  -7    8.63    4.36
   1  -7  -7    9.13    3.52
  -1   7  -7    5.10    5.56
  -1  -7   7   -3.56    3.26
   1  -7  -7    4.09    5.22
   1   7   7   -5.26    5.90
  -1  -7  -8   12.73    5.13
  -1  -7  -8    7.71    4.64
  -1  -7  -8    7.03    3.73
   1   7  -8    2.26    6.37
  -1  -7  -8   -4.61    5.42
  -1   7   8   -5.18    6.02
   1  -7   8   -8.73    5.93
   1  -7   8   -9.90    5.02
   1  -7   8   -4.38    4.27
   1   7   8    0.94    6.26
  -1  -7   8   -3.03    4.20
   1  -7  -8    2.63    5.72
   1  -7  -8    7.39    4.23
   1  -7  -8    7.76    3.50
   1   7   8  -12.49    6.54
  -1  -7   8    0.99    5.95
   1  -7  -8    8.20    4.49
  -1   7  -8    3.33    6.02
  -1  -7   8    2.35    5.23
  -2   7   0   12.07    3.53
   2  -7   0   11.11    1.88
   2   7   0   13.21    3.48
   2  -7   0   13.12    1.62
   2   7   0   13.75    2.34
   2   7  -1   26.04    4.32
   2   7  -1   28.67    2.43
  -2   7   1   28.94    4.26
   2  -7   1   24.96    2.38
  -2  -7  -1   23.77    2.41
  -2  -7  -1   24.25    2.74
   2   7  -1   30.28    2.95
  -2  -7  -1   25.84    3.01
  -2   7  -1   29.90    4.57
   2  -7  -1   26.89    2.21
   2  -7  -1   28.14    2.86
   2   7   1   29.45    3.58
  -2  -7   1   27.89    2.56
   2   7   1   30.97    4.13
   2  -7  -1   29.15    2.58
  -2  -7  -2   31.73    3.25
   2   7  -2   33.59    3.48
  -2   7   2   31.90    4.22
   2  -7   2   37.08    3.44
  -2  -7  -2   33.37    3.72
  -2  -7  -2   32.77    2.91
   2   7  -2   27.85    4.56
   2  -7   2   32.85    2.99
   2  -7  -2   31.56    3.11
   2  -7  -2   27.90    2.64
  -2  -7   2   29.21    2.76
   2   7   2   35.97    4.01
  -2   7  -2   30.35    5.01
   2  -7  -2   30.32    3.29
  -2  -7   2   32.41    3.10
   2   7   2   32.01    3.88
   2  -7   3   20.60    3.18
  -2  -7  -3   15.24    3.19
   2   7  -3   16.54    3.28
  -2  -7  -3   13.61    2.79
  -2   7   3   14.15    3.57
   2   7  -3   17.55    4.25
  -2  -7  -3   16.21    2.64
   2  -7   3   17.82    2.96
   2  -7   3   15.85    2.70
   2  -7  -3   17.82    2.50
  -2  -7   3   19.47    3.25
   2   7   3   21.89    3.66
  -2  -7   3   15.26    2.73
  -2   7  -3   14.50    4.11
   2  -7  -3   15.28    2.64
   2   7   3   15.40    3.42
   2  -7  -3   13.79    2.84
  -2  -7   3   16.39    2.47
  -2   7   4   41.62    5.03
   2  -7   4   40.82    5.07
   2  -7   4   41.52    4.60
  -2  -7  -4   36.01    4.90
   2   7  -4   35.92    6.36
  -2   7   4   38.20    5.58
   2  -7   4   39.17    4.05
   2   7  -4   36.52    5.08
  -2  -7  -4   40.05    5.23
  -2  -7  -4   38.67    4.47
  -2  -7  -4   37.40    3.64
  -2   7  -4   34.88    6.31
   2  -7  -4   41.51    5.53
  -2  -7   4   32.11    3.78
   2   7   4   38.98    5.49
   2  -7  -4   40.93    4.13
   2  -7  -4   33.95    4.55
   2  -7  -4   37.13    3.39
  -2  -7   4   37.34    4.97
   2   7   4   37.62    5.58
  -2  -7   4   32.84    3.71
  -2   7   5   23.64    5.02
   2  -7   5   26.82    5.23
  -2  -7  -5   23.19    3.76
  -2  -7  -5   25.59    4.51
  -2  -7  -5   22.93    4.74
   2  -7   5   24.48    4.36
   2   7  -5   25.14    6.41
  -2   7   5   25.57    5.80
   2   7  -5   25.48    4.97
  -2  -7  -5   28.52    5.44
   2  -7   5   24.70    4.04
  -2  -7   5   23.39    3.69
   2  -7  -5   29.68    4.67
   2  -7  -5   29.98    5.67
   2  -7  -5   28.90    4.34
  -2   7  -5   24.75    6.14
   2  -7  -5   26.70    3.76
   2   7   5   30.44    5.96
   2   7   5   26.45    5.50
  -2  -7   5   28.00    4.43
  -2  -7   5   28.82    5.08
   2  -7   6   27.37    4.44
  -2  -7  -6   34.76    6.33
  -2  -7  -6   31.92    4.15
   2  -7   6   42.24    6.43
  -2  -7  -6   39.12    5.91
   2  -7   6   22.69    4.76
  -2   7   6   28.19    6.04
  -2  -7  -6   40.81    5.53
   2   7  -6   33.99    7.26
  -2   7   6   38.40    6.98
   2  -7  -6   37.30    5.35
   2  -7  -6   42.43    5.04
  -2  -7   6   37.80    6.05
   2   7   6   38.54    6.90
   2  -7  -6   34.03    6.52
   2  -7  -6   39.30    4.06
  -2  -7   6   25.68    4.03
  -2  -7   6   31.35    4.98
  -2   7  -6   39.70    7.33
   2   7   6   34.79    6.58
   2  -7   7   17.69    4.60
  -2  -7  -7   27.94    6.42
   2   7  -7   32.81    7.74
  -2   7   7   28.82    7.04
  -2   7   7   17.30    6.77
  -2  -7  -7   28.32    5.78
   2  -7   7   25.12    6.72
  -2  -7  -7   40.36    5.80
  -2  -7  -7   29.38    4.15
   2  -7   7   12.75    5.22
  -2  -7   7   20.25    4.33
  -2  -7   7   27.22    6.52
   2  -7  -7   29.78    4.20
   2  -7  -7   23.43    6.35
   2   7   7   27.08    7.01
   2  -7  -7   34.51    5.32
  -2   7  -7   31.69    7.28
   2  -7  -7   28.90    5.40
  -2  -7   7   21.91    5.23
   2   7   7   32.88    7.30
   2  -7   8    8.76    5.65
  -2  -7  -8   23.67    3.95
  -2   7   8   19.85    7.52
   2  -7   8    8.70    4.78
  -2  -7  -8   24.50    5.44
   2  -7   8   11.38    6.99
  -2  -7  -8   26.59    5.90
  -2  -7  -8   18.37    6.50
   2   7  -8   15.67    7.38
   2  -7  -8   13.76    6.50
  -2  -7   8   16.99    5.78
   2  -7  -8   27.57    5.51
   2   7   8   19.82    7.45
  -2  -7   8   19.19    6.60
   2  -7  -8   26.89    5.31
  -2   7  -8   23.34    7.42
  -2  -7   8   13.59    4.83
   2  -7  -8   24.63    4.22
   2   7   8    8.96    7.28
   3  -7   0   69.01    2.64
   3   7   0   66.51    4.97
  -3   7   0   67.57    5.43
   3   7   0   67.49    3.93
   3  -7   0   70.81    3.29
   3   7  -1   91.47    5.38
   3   7  -1   95.86    3.50
   3  -7   1   91.76    3.38
  -3  -7  -1   92.61    3.92
  -3  -7  -1   93.63    4.28
  -3   7   1   94.52    5.62
  -3  -7  -1   90.69    3.40
   3   7  -1   90.80    4.20
   3   7   1  100.66    5.21
  -3   7  -1   95.89    3.52
  -3   7  -1   90.05    6.46
   3  -7  -1   93.10    3.95
   3   7   1   99.48    4.94
   3  -7  -1   96.58    3.68
   3  -7  -1   98.31    3.19
   3  -7   2   78.06    4.24
  -3  -7  -2   80.31    4.15
  -3   7   2   71.36    5.15
   3   7  -2   76.54    5.62
   3   7  -2   79.29    4.35
  -3  -7  -2   78.57    3.57
  -3  -7  -2   79.50    4.59
   3  -7   2   77.66    3.73
   3   7   2   77.87    4.67
   3  -7  -2   82.93    3.92
   3   7   2   80.28    4.92
  -3  -7   2   78.99    3.84
   3  -7  -2   81.91    3.31
   3  -7  -2   78.58    4.22
  -3   7  -2   75.95    5.93
  -3  -7   2   77.75    3.39
  -3  -7  -3   52.35    4.10
  -3   7   3   51.64    5.09
   3  -7   3   53.33    4.31
   3  -7   3   47.55    3.77
  -3  -7  -3   52.93    4.54
   3   7  -3   51.02    4.42
  -3  -7  -3   54.39    3.48
   3   7  -3   52.86    5.70
   3  -7  -3   48.04    3.09
  -3  -7   3   51.42    3.84
  -3  -7   3   45.85    3.40
   3  -7  -3   50.23    3.71
  -3   7  -3   49.58    5.86
   3  -7  -3   50.89    4.10
   3   7   3   50.62    4.68
   3   7   3   54.66    5.00
   3  -7   4   22.94    3.51
  -3  -7  -4   20.20    3.23
   3   7  -4   25.34    4.30
  -3  -7  -4   20.94    3.81
  -3   7   4   17.73    4.51
   3  -7   4   23.62    3.98
   3  -7   4   24.07    4.27
   3   7  -4   23.12    5.51
  -3  -7  -4   21.32    4.33
  -3  -7  -4   14.72    3.93
   3   7   4   24.27    4.63
  -3  -7   4   16.24    3.40
  -3   7  -4   22.27    5.33
  -3  -7   4   19.43    3.12
   3  -7  -4   17.89    4.57
   3   7   4   25.55    4.76
   3  -7  -4   19.34    3.42
  -3  -7   4   21.72    4.12
   3  -7  -4   23.55    3.72
   3  -7  -4   23.25    3.05
   3  -7   5   16.40    4.88
  -3  -7  -5   14.40    4.82
   3  -7   5   16.70    4.43
  -3   7   5   19.14    4.79
   3   7  -5   13.98    5.88
  -3  -7  -5   13.56    3.62
   3   7  -5   12.88    4.68
  -3  -7  -5   12.81    4.34
  -3   7   5   13.08    5.21
   3  -7   5   14.16    3.84
  -3  -7  -5   12.58    4.73
  -3  -7   5   11.23    3.90
  -3  -7   5   12.09    3.39
   3   7   5   16.38    5.34
   3   7   5   20.15    5.47
   3  -7  -5   18.59    4.18
   3  -7  -5   16.10    3.38
   3  -7  -5   19.48    5.30
  -3   7  -5   10.83    5.86
  -3  -7   5   17.43    4.68
   3  -7  -5   18.71    4.10
  -3   7   6    9.99    5.43
   3  -7   6    6.22    4.29
  -3  -7  -6    8.91    4.45
   3   7  -6    0.30    4.25
  -3  -7  -6    9.44    4.90
   3  -7   6    4.27    3.79
  -3  -7  -6    9.88    4.78
   3  -7   6    9.28    5.33
  -3  -7  -6    6.26    3.25
  -3   7   6    1.88    5.13
   3   7  -6    6.72    5.68
   3  -7  -6   12.67    5.50
   3   7   6    8.29    5.38
  -3  -7   6   12.13    4.00
  -3  -7   6   10.69    3.49
  -3   7  -6   13.10    5.84
   3  -7  -6   10.02    3.32
   3  -7  -6   10.02    4.19
  -3  -7   6   10.21    4.67
   3  -7  -6    9.46    4.27
   3   7   6    9.87    5.71
   3  -7   7    9.35    5.01
  -3   7   7   10.43    6.30
   3  -7   7   11.91    6.21
  -3  -7  -7   20.58    5.46
  -3  -7  -7   14.18    3.53
   3  -7   7    7.47    4.30
  -3  -7  -7   14.15    4.77
  -3  -7  -7   12.28    5.55
  -3   7   7   -6.54    5.87
   3   7  -7    6.31    6.27
  -3  -7   7    5.87    3.64
  -3  -7   7    9.35    5.55
   3  -7  -7   13.31    4.72
   3  -7  -7   11.85    5.89
  -3   7  -7   14.64    6.42
   3   7   7    3.11    6.21
  -3  -7   7    4.98    4.66
   3  -7  -7   11.00    3.64
   3  -7  -7   11.21    4.75
   3   7   7    2.82    5.88
  -3  -7  -8    2.32    5.58
  -3   7   8    6.40    6.67
   3  -7   8   -4.71    5.11
  -3  -7  -8    3.94    4.68
  -3  -7  -8   10.73    5.34
  -3  -7  -8   11.07    3.65
   3  -7   8   -9.14    6.17
   3   7  -8    4.58    6.97
   3  -7   8   -5.34    4.26
  -3  -7   8    0.48    3.82
   3  -7  -8    3.28    4.53
  -3   7  -8    0.64    6.21
   3   7   8    1.95    6.27
   3  -7  -8    6.66    3.60
   3   7   8   -8.16    6.64
   3  -7  -8    4.02    6.13
   3  -7  -8    8.72    4.45
  -3  -7   8   -7.12    4.76
  -3  -7   8    0.36    5.82
   4   7   0   35.03    2.25
  -4   7   0   39.46    5.26
   4  -7   0   37.66    3.08
   4   7   0   35.01    3.75
   4   7   0   34.75    2.53
  -4   7   1   25.77    4.71
   4  -7   1   21.67    2.73
   4   7  -1   21.36    3.05
   4   7  -1   22.32    3.65
  -4  -7  -1   22.22    2.50
  -4  -7  -1   21.54    2.71
  -4  -7  -1   20.92    2.96
   4  -7   1   23.43    2.63
   4   7  -1   21.02    2.40
   4  -7  -1   21.67    2.26
   4   7   1   24.93    3.61
  -4   7  -1   27.48    5.15
   4  -7  -1   21.69    3.00
  -4   7  -1   24.74    2.69
  -4  -7  -2   16.44    2.76
   4  -7   2   20.09    2.69
  -4  -7  -2   14.21    3.01
   4   7  -2   17.29    2.56
  -4  -7  -2   14.19    2.53
  -4   7   2   20.16    3.82
   4   7  -2   18.06    3.85
   4  -7   2   19.88    3.14
   4   7  -2   14.65    2.79
   4  -7  -2   17.70    2.16
  -4  -7   2   18.34    2.70
  -4   7  -2   18.87    4.61
   4  -7  -2   14.54    2.52
   4   7   2   20.11    3.62
   4  -7  -2   18.38    2.53
   4   7   2   19.24    3.51
   4   7  -3   26.18    3.80
   4   7  -3   25.10    4.92
  -4  -7  -3   20.19    3.64
   4  -7   3   27.40    3.21
  -4  -7  -3   22.24    3.31
  -4  -7  -3   22.76    2.98
  -4   7   3   21.57    4.22
   4  -7   3   19.71    3.49
  -4   7  -3   17.76    4.76
   4  -7  -3   25.72    3.16
   4   7   3   23.36    4.01
   4  -7  -3   24.75    2.67
  -4  -7   3   27.20    3.30
   4   7   3   20.91    3.93
   4  -7  -3   22.95    3.32
  -4  -7   3   21.79    2.66
   4  -7   4   26.52    4.60
  -4  -7  -4   25.76    3.56
  -4   7   4   24.87    4.86
   4  -7   4   28.13    4.27
   4   7  -4   24.23    4.22
  -4  -7  -4   20.21    3.96
   4  -7   4   27.78    3.74
  -4  -7  -4   22.34    4.45
   4   7  -4   27.07    5.84
  -4  -7  -4   28.07    4.59
   4  -7  -4   27.66    3.76
   4   7   4   23.43    4.75
  -4  -7   4   19.54    4.03
  -4  -7   4   22.53    3.34
   4  -7  -4   23.79    3.10
   4  -7  -4   27.46    5.28
  -4   7  -4   21.58    5.61
   4  -7  -4   26.63    4.02
   4   7   4   27.01    4.99
  -4  -7   4   28.16    3.83
   4  -7   5   10.37    3.71
  -4  -7  -5   12.09    3.55
   4   7  -5   14.59    6.14
   4  -7   5   12.86    4.39
   4  -7   5   20.14    5.12
  -4   7   5   10.39    4.87
  -4   7   5   14.27    4.64
  -4  -7  -5   10.81    4.78
   4   7  -5   14.49    4.64
  -4  -7  -5   10.49    4.26
  -4  -7  -5   16.52    4.95
  -4   7  -5   14.54    6.04
   4  -7  -5   13.01    3.26
   4   7   5   18.69    5.33
   4  -7  -5   15.74    4.41
   4   7   5   15.38    5.45
  -4  -7   5   15.29    3.54
  -4  -7   5   15.95    3.94
   4  -7  -5   17.95    4.02
   4  -7  -5   13.30    5.07
  -4  -7   5   19.11    4.88
   4   7  -6   13.02    4.90
   4  -7   6   15.14    4.55
   4   7  -6   23.42    6.83
  -4  -7  -6   22.89    5.41
  -4   7   6   12.64    5.31
  -4  -7  -6   21.69    4.94
  -4   7   6   13.15    5.58
  -4  -7  -6   15.83    3.67
   4  -7   6   15.58    3.98
  -4  -7  -6   18.00    5.12
   4  -7   6   18.70    5.65
   4   7   6   13.53    5.52
   4  -7  -6   19.93    4.23
   4  -7  -6   15.42    3.39
  -4  -7   6   16.31    3.65
   4   7   6   19.06    5.91
  -4   7  -6   16.54    6.09
  -4  -7   6   18.41    4.45
   4  -7  -6   17.96    4.59
  -4  -7   6   20.21    5.29
   4  -7  -6   16.44    5.66
  -4  -7  -7   10.00    5.36
  -4   7   7    4.59    6.11
  -4   7   7   12.49    6.18
  -4  -7  -7   17.13    5.17
   4  -7   7    4.85    4.22
   4  -7   7    6.86    4.95
  -4  -7  -7   12.86    3.64
   4  -7   7    5.22    6.01
   4   7  -7   18.33    7.11
  -4  -7  -7   20.02    5.66
   4   7   7   14.85    6.30
  -4   7  -7   18.07    6.64
   4   7   7    7.15    6.44
  -4  -7   7    7.04    4.63
   4  -7  -7   12.27    4.75
   4  -7  -7   12.82    3.58
   4  -7  -7   14.37    4.51
   4  -7  -7    9.48    5.90
  -4  -7   7    5.78    3.67
  -4  -7   7   13.72    5.64
  -4  -7  -8   18.69    5.76
  -4  -7  -8   11.07    3.47
  -4   7   8    2.69    6.41
  -4   7   8   -6.99    6.75
   4   7  -8    9.91    7.29
  -4  -7  -8    7.12    5.83
   4  -7   8    0.81    4.62
   4  -7   8    5.61    5.64
   4  -7   8   -1.56    6.67
  -4  -7  -8    8.18    4.73
   4  -7  -8   10.71    4.71
  -4  -7   8    1.84    3.91
   4  -7  -8    6.83    4.24
   4   7   8    3.34    6.44
   4  -7  -8    7.29    3.47
  -4  -7   8    7.67    6.37
  -4  -7   8   -0.48    5.25
  -4   7  -8   15.41    7.01
   4   7   8    9.24    7.15
   4  -7  -8    8.11    6.24
  -5   7   0  231.99    6.12
   5   7   0  237.28    5.49
   5   7   0  232.13    7.07
  -5   7   0  228.28    8.64
   5  -7   0  239.48    6.22
   5   7   0  226.51    5.20
  -5  -7  -1  142.67    5.50
  -5   7   1  155.97    7.20
   5   7  -1  149.93    5.73
   5  -7   1  149.42    4.86
   5   7  -1  149.39    4.61
  -5  -7  -1  149.41    5.04
   5  -7   1  144.74    4.38
  -5  -7  -1  151.14    4.46
   5  -7  -1  148.32    5.19
  -5   7  -1  152.59    4.86
   5   7   1  149.98    6.31
  -5   7  -1  153.17    7.87
   5   7   1  151.56    3.91
   5   7   1  148.51    4.26
   5  -7  -1  151.10    4.22
  -5  -7  -2   84.09    4.55
   5   7  -2   80.99    5.57
  -5   7   2   78.94    5.65
  -5  -7  -2   80.31    4.93
   5   7  -2   77.41    3.96
   5  -7   2   80.41    3.86
   5   7  -2   79.81    4.76
   5  -7   2   82.15    4.50
  -5  -7  -2   84.41    3.87
   5  -7  -2   81.19    4.39
  -5   7  -2   88.84    4.07
   5  -7  -2   74.89    3.27
  -5   7  -2   81.02    6.59
   5   7   2   82.04    5.39
  -5  -7  -3   79.53    4.09
   5  -7   3   81.40    5.08
  -5  -7  -3   71.01    5.46
  -5  -7  -3   71.93    4.90
   5  -7   3   76.39    4.31
   5   7  -3   81.78    6.57
  -5   7   3   78.40    6.18
   5   7  -3   71.91    5.13
  -5   7  -3   71.61    6.70
   5   7   3   73.73    5.02
   5  -7  -3   77.09    4.33
   5  -7  -3   76.14    4.70
  -5  -7   3   75.54    4.47
   5  -7  -3   78.81    3.55
   5   7   3   78.42    5.99
  -5  -7  -4   25.29    4.21
  -5  -7  -4   30.00    4.89
   5   7  -4   30.11    4.75
   5  -7   4   36.03    4.85
  -5  -7  -4   33.33    4.91
   5   7  -4   35.40    6.22
   5  -7   4   32.83    3.87
  -5  -7  -4   33.46    3.79
   5  -7   4   27.88    4.30
  -5   7   4   31.73    5.44
   5  -7  -4   33.56    4.36
   5   7   4   34.22    5.22
  -5   7  -4   31.75    6.19
  -5  -7   4   29.81    3.48
  -5  -7   4   33.08    4.69
   5   7   4   33.39    5.28
   5  -7  -4   33.56    3.39
   5  -7  -4   34.12    4.37
  -5  -7   4   38.56    4.13
  -5  -7  -5   26.51    5.26
  -5   7   5   24.63    5.06
  -5  -7  -5   25.25    5.10
   5   7  -5   22.72    6.73
   5   7  -5   22.20    5.11
  -5  -7  -5   28.59    5.62
   5  -7   5   18.95    4.44
  -5   7   5   25.52    5.77
   5  -7   5   26.24    5.52
  -5  -7  -5   21.13    3.97
   5  -7   5   24.94    4.07
   5  -7  -5   23.73    5.85
   5   7   5   27.68    5.78
   5   7   5   23.27    5.94
  -5  -7   5   21.91    5.02
   5  -7  -5   29.98    4.53
  -5  -7   5   23.30    3.71
   5  -7  -5   24.23    4.71
  -5   7  -5   26.06    6.82
  -5  -7   5   19.51    4.14
   5  -7  -5   27.46    3.66
   5  -7   6    9.64    3.72
   5   7  -6   13.11    4.82
  -5  -7  -6   16.51    5.01
  -5   7   6   14.82    5.66
   5  -7   6   18.88    5.75
  -5  -7  -6   12.02    3.43
   5  -7   6    9.02    4.28
  -5   7   6   11.15    5.15
   5   7  -6   16.57    6.32
  -5  -7  -6   17.10    4.77
  -5  -7  -6   20.34    5.40
   5  -7  -6   18.79    4.15
   5  -7  -6   16.84    5.88
   5  -7  -6   15.96    4.40
   5   7   6    8.71    5.66
   5   7   6   16.54    5.68
  -5  -7   6   10.29    4.28
  -5  -7   6   13.01    5.05
  -5  -7   6    7.54    3.25
   5  -7  -6   20.70    3.59
  -5   7  -6   15.71    6.06
  -5  -7  -7   18.46    4.01
  -5  -7  -7   24.08    6.09
   5   7  -7   17.83    7.15
  -5   7   7    1.10    5.91
  -5   7   7   15.79    6.55
   5  -7   7    8.91    6.36
   5  -7   7    0.23    4.07
  -5  -7  -7   21.72    5.48
   5  -7   7    6.42    4.93
  -5  -7  -7    8.94    5.23
   5   7  -7    9.02    5.64
  -5  -7   7    9.23    5.46
   5  -7  -7   15.69    3.74
   5   7   7    0.24    6.27
  -5  -7   7    6.73    3.77
   5   7   7   10.79    5.95
   5  -7  -7   13.90    6.32
   5  -7  -7   15.14    4.78
  -5  -7   7   11.70    4.91
  -5   7  -7   10.56    6.47
   5  -7  -7   13.33    4.21
   5  -7   8  -10.53    5.10
  -5  -7  -8    1.57    5.31
  -5  -7  -8   14.40    5.67
  -5  -7  -8   14.67    5.34
   5  -7   8   -4.91    6.79
   5  -7   8   -4.29    4.35
  -5  -7  -8    5.22    3.51
  -5   7   8    0.80    6.33
   5   7  -8    8.13    7.13
  -5  -7   8   -2.17    5.20
  -5  -7   8   -2.38    5.54
   5   7   8   -7.56    6.71
   5  -7  -8    0.72    6.11
  -5   7  -8    3.68    6.07
   5  -7  -8    7.94    4.32
   5  -7  -8    0.94    4.41
  -5  -7   8   -3.40    3.64
   5   7   8    6.36    6.48
   5  -7  -8    8.72    3.60
   6   7   0    5.29    1.97
  -6   7   0   10.83    4.38
   6   7   0    6.48    1.81
   6  -7   0    5.91    2.42
  -6   7   0    8.16    2.42
   6   7   0    9.26    3.03
  -6  -7  -1   13.35    3.07
   6   7  -1    8.97    3.13
   6   7  -1   13.91    2.43
   6  -7   1   11.75    2.37
   6  -7   1   13.08    2.61
  -6  -7  -1   12.00    2.55
  -6   7   1   13.44    4.34
  -6  -7  -1   13.90    2.78
   6   7   1   12.40    1.90
   6   7   1   11.73    2.16
  -6   7  -1   13.38    2.62
   6   7   1   13.30    3.79
  -6   7  -1   12.45    4.88
   6  -7  -1   12.63    2.65
  -6  -7  -2    4.77    3.05
   6  -7   2    4.69    2.46
   6   7  -2    5.93    3.49
   6   7  -2   -1.32    2.65
   6  -7   2    4.02    2.91
  -6  -7  -2    1.39    2.42
  -6   7   2    3.19    3.54
   6   7  -2    1.93    2.19
  -6  -7  -2    3.38    2.72
  -6   7  -2    0.05    4.26
   6  -7  -2    2.35    1.83
  -6   7  -2    5.59    2.59
   6   7   2    2.68    3.37
   6   7   2    4.68    2.21
   6  -7  -2    1.55    2.28
   6   7   2    3.57    1.73
   6  -7   3   14.82    3.11
  -6  -7  -3   16.18    3.16
   6   7  -3   12.45    3.09
   6   7  -3   13.07    4.70
  -6  -7  -3   11.83    3.96
  -6  -7  -3   13.71    3.58
   6   7  -3   12.28    3.51
  -6   7   3   14.82    4.49
   6  -7   3   16.30    3.60
  -6   7  -3   10.93    5.01
   6  -7  -3   13.84    3.18
  -6   7  -3   15.29    3.31
   6   7   3   12.77    4.36
   6  -7  -3   14.92    2.52
  -6  -7   3   19.57    3.27
   6   7   3   13.20    2.72
  -6   7   4    9.98    4.63
   6  -7   4    7.04    4.09
  -6  -7  -4    5.55    3.17
  -6  -7  -4    4.10    3.91
   6   7  -4   10.94    5.58
   6  -7   4    7.07    3.28
   6   7  -4    2.68    3.64
  -6  -7  -4    3.54    4.31
   6  -7   4    6.01    3.66
   6   7   4    6.27    3.94
   6  -7  -4   10.78    2.82
   6  -7  -4    7.87    3.27
  -6  -7   4    5.67    3.36
  -6   7  -4    7.87    5.37
   6   7   4    5.44    4.62
   6  -7  -4    9.05    3.46
  -6  -7   4   11.58    2.87
   6   7  -5   11.20    6.30
   6  -7   5   11.46    4.12
   6  -7   5   10.97    5.23
  -6  -7  -5    8.21    4.35
  -6  -7  -5   11.04    5.14
   6  -7   5    4.28    3.65
   6   7  -5    6.17    4.48
  -6  -7  -5    9.90    3.61
  -6   7   5    7.20    5.23
  -6  -7  -5   10.78    4.67
   6   7   5   10.53    4.83
  -6  -7   5    8.59    4.55
  -6  -7   5    8.59    3.40
   6  -7  -5    7.58    5.43
   6  -7  -5    5.99    3.09
   6  -7  -5   12.43    3.84
   6   7   5   10.24    3.50
   6   7   5    7.59    5.19
  -6   7  -5   12.86    6.30
  -6  -7   5    7.81    3.81
   6  -7  -5   10.41    4.04
   6  -7   6   -0.49    3.83
   6   7  -6    3.32    4.46
  -6   7   6    1.42    4.83
  -6   7   6   -1.71    4.55
  -6  -7  -6    3.99    3.18
   6  -7   6   -0.51    3.39
   6   7  -6    9.26    6.17
  -6  -7  -6    5.09    5.01
  -6  -7  -6    0.51    4.26
   6  -7   6   -5.06    4.91
  -6  -7  -6    0.85    4.28
   6   7   6    3.24    4.76
   6   7   6   -1.21    5.51
  -6  -7   6    3.97    3.12
   6  -7  -6    2.48    3.58
  -6  -7   6    1.87    4.33
   6  -7  -6    1.02    2.93
   6  -7  -6    2.02    3.79
  -6  -7   6   -2.20    3.58
   6  -7  -6    5.19    5.19
  -6   7  -6    3.25    5.51
  -6   7   7   -3.30    5.61
  -6  -7  -7   13.09    5.89
  -6  -7  -7    8.72    5.15
   6  -7   7    2.01    4.10
  -6   7   7    3.80    5.83
  -6  -7  -7    8.61    3.56
   6   7  -7    5.48    6.56
   6  -7   7   -5.56    6.16
   6   7  -7   -1.74    4.93
  -6  -7  -7   -0.15    4.75
   6  -7   7   -1.40    4.65
   6  -7  -7    1.14    3.95
   6  -7  -7    2.70    3.15
   6  -7  -7    4.20    6.07
  -6   7  -7    9.61    6.28
  -6  -7   7    2.72    5.30
   6   7   7    2.02    6.41
  -6  -7   7    1.91    3.44
   6   7   7    3.40    5.63
   6   7   7    4.19    3.70
  -6  -7   7    3.04    4.67
   6  -7  -7    4.31    4.29
   6   7  -8    5.87    7.03
  -6  -7  -8   13.60    5.29
  -6   7   8   -1.49    6.16
  -6  -7  -8    3.89    3.47
  -6  -7  -8    0.75    5.52
   6  -7   8   -2.12    4.55
  -6  -7  -8   15.13    5.97
   6  -7   8  -14.86    4.89
   6  -7   8  -11.26    6.95
   6  -7  -8   -0.25    6.00
  -6  -7   8   -5.13    4.98
   6  -7  -8    0.59    4.63
   6  -7  -8    3.60    3.36
  -6   7  -8    5.33    6.46
  -6  -7   8   -2.58    3.66
  -6  -7   8    2.87    5.66
   6   7   8   -1.36    5.99
   6  -7  -8    7.60    4.07
   7   7   0  163.69    5.05
  -7   7   0  162.37    5.61
  -7  -7   0  167.02    5.97
   7   7   0  163.38    4.61
   7   7   0  165.91    6.59
   7  -7   0  167.02    5.72
  -7   7   0  158.69    8.12
   7  -7   1  222.96    5.67
   7   7  -1  206.10    7.32
  -7   7   1  222.11    9.03
  -7  -7  -1  218.80    5.83
   7   7  -1  208.77    5.67
   7   7  -1  217.20    5.97
  -7  -7  -1  222.67    7.17
  -7   7   1  207.16    6.48
  -7  -7  -1  223.76    6.52
   7   7   1  215.49    7.99
  -7   7  -1  221.60    9.45
   7   7   1  220.76    5.73
   7   7   1  216.92    5.31
   7  -7  -1  221.31    6.72
  -7   7  -1  223.66    6.53
  -7  -7  -2  104.68    5.31
   7  -7   2   94.77    4.45
  -7  -7  -2  104.64    6.02
   7   7  -2   99.11    4.68
  -7   7   2   92.92    6.66
   7   7  -2   84.83    5.53
   7  -7   2  107.64    5.16
  -7  -7  -2  107.07    4.59
   7   7   2  100.36    4.38
  -7   7  -2  104.24    7.76
   7   7   2   96.85    6.47
   7  -7  -2   97.20    5.03
   7   7   2  103.48    3.75
  -7   7  -2  102.62    5.03
   7   7  -3   70.92    5.68
   7  -7   3   75.23    5.57
  -7  -7  -3   67.61    5.45
  -7  -7  -3   79.72    4.51
  -7   7   3   71.92    6.60
   7   7  -3   68.27    4.94
   7   7  -3   80.50    6.86
   7  -7   3   67.79    4.73
  -7  -7  -3   72.92    6.23
   7  -7  -3   71.78    3.87
   7   7   3   72.16    4.40
  -7   7  -3   77.96    5.19
   7  -7  -3   81.25    5.22
   7   7   3   72.69    3.64
   7   7   3   72.22    6.61
  -7   7  -3   71.63    7.56
  -7  -7   3   71.54    4.87
   7  -7   4   79.40    6.15
  -7  -7  -4   75.95    5.05
   7   7  -4   72.93    6.30
   7  -7   4   77.70    5.15
  -7  -7  -4   71.10    6.86
   7   7  -4   87.22    7.89
  -7   7   4   75.78    7.27
  -7  -7  -4   88.55    6.42
   7   7   4   79.47    3.93
   7   7   4   83.21    7.37
  -7   7  -4   73.51    5.96
   7   7   4   82.15    5.03
  -7   7  -4   82.04    8.09
   7  -7  -4   86.51    5.87
  -7  -7   4   72.66    5.28
   7  -7  -4   77.48    4.30
   7  -7   5   14.16    4.37
   7   7  -5   22.82    6.65
  -7   7   5   18.58    5.83
  -7  -7  -5   15.14    3.75
   7  -7   5   12.38    5.36
  -7  -7  -5   20.60    5.32
  -7  -7  -5   17.77    4.50
   7   7  -5   18.47    4.84
  -7  -7  -5   15.59    5.68
   7  -7   5   15.05    3.93
   7  -7  -5   18.99    4.03
   7  -7  -5   20.29    6.18
   7   7   5   19.01    5.09
  -7  -7   5   16.12    4.66
   7   7   5   19.73    3.00
   7   7   5   20.31    3.82
  -7  -7   5   17.16    4.03
  -7   7  -5   23.86    6.70
   7  -7  -5   18.05    4.35
   7  -7  -5   15.75    3.41
   7   7   5   22.31    5.82
  -7  -7   5   16.10    3.46
   7   7  -6   32.89    5.99
  -7   7   6   23.24    6.35
   7  -7   6   24.33    6.41
   7   7  -6   31.64    7.39
  -7  -7  -6   28.97    4.26
   7  -7   6   25.73    4.44
  -7  -7  -6   31.28    5.66
  -7  -7  -6   36.52    6.42
  -7  -7  -6   28.77    5.49
   7  -7   6   27.52    5.12
  -7  -7   6   30.50    5.99
  -7   7  -6   36.56    7.35
   7   7   6   38.98    4.62
   7  -7  -6   30.97    4.98
  -7  -7   6   19.33    3.74
   7  -7  -6   32.80    4.00
   7   7   6   21.03    6.24
   7   7   6   28.44    5.96
  -7  -7   6   26.94    4.89
   7  -7  -6   35.85    4.58
   7  -7  -6   28.04    6.70
   7   7  -7    9.39    6.76
  -7   7   7   -5.61    5.44
  -7  -7  -7    7.25    5.11
   7  -7   7    6.39    4.24
   7   7  -7    9.28    5.53
  -7  -7  -7   16.91    5.51
   7  -7   7    6.82    5.19
  -7   7   7    8.27    6.13
  -7  -7  -7   17.17    6.12
  -7  -7  -7   11.00    3.75
  -7  -7   7   -1.13    3.43
   7  -7  -7    3.92    6.25
  -7  -7   7    2.64    4.65
   7   7   7    8.34    5.72
   7   7   7   10.10    3.95
   7   7   7    5.19    6.72
  -7  -7   7    3.59    5.39
   7  -7  -7   13.24    4.63
  -7   7  -7   12.82    6.77
   7  -7  -7   12.88    3.72
   7  -7  -7    9.80    4.07
   7  -7   8   -2.26    4.26
  -7   7   8    2.77    6.49
   7   7  -8   12.18    7.41
  -7  -7  -8   10.82    6.26
   7  -7   8   -5.30    5.45
  -7  -7  -8    1.30    5.55
  -7  -7  -8   13.82    5.65
  -7  -7  -8   10.08    3.82
  -7  -7   8    1.19    3.93
  -7  -7   8   -7.02    5.14
   7   7   8   -6.69    7.12
  -7  -7   8    0.54    5.74
  -7   7  -8    7.59    6.55
   7  -7  -8    2.23    6.55
   7   7   8    2.70    6.67
   7  -7  -8    5.60    4.51
   7  -7  -8    8.30    3.68
   7  -7  -8   10.25    4.33
   8   7   0   -3.83    1.93
  -8  -7   0    2.40    3.26
   8  -7   0    0.88    2.03
  -8   7   0    7.18    4.92
   8  -7   0    3.52    2.68
   8   7   0    1.40    3.21
   8   7   0   -0.22    2.32
  -8   7   0   -0.08    2.47
   8  -7   1    6.69    2.55
   8   7  -1    4.64    3.27
  -8   7   1    8.97    4.91
   8   7  -1    6.66    2.34
  -8  -7  -1    9.55    3.29
  -8   7   1    5.69    2.72
  -8  -7  -1    5.25    2.97
  -8  -7  -1    5.09    3.55
   8   7  -1    6.28    2.71
   8   7   1    7.24    2.16
   8  -7  -1    8.63    2.96
  -8   7  -1    8.37    5.40
  -8   7  -1    6.18    2.96
   8   7   1    8.46    2.57
   8   7   1   11.36    4.19
  -8  -7  -2    4.17    3.33
   8   7  -2    1.12    3.28
  -8   7   2    6.92    4.61
  -8  -7  -2    8.10    3.97
  -8   7   2    3.33    2.81
  -8  -7  -2    7.12    3.23
   8   7  -2    4.68    2.90
   8  -7   2    5.80    3.03
   8  -7   2    5.47    3.47
   8   7   2    4.83    4.38
   8  -7  -2    5.50    2.92
   8   7   2    7.30    2.38
   8   7   2    6.85    2.79
  -8   7  -2    6.26    3.26
  -8   7  -2    5.76    5.40
   8  -7   3    4.49    3.68
  -8  -7  -3    4.64    3.93
  -8  -7  -3    9.65    4.58
  -8  -7  -3    7.75    3.40
   8   7  -3    3.83    3.50
   8  -7   3    3.75    3.41
  -8   7   3   10.19    4.60
   8   7  -3    5.75    3.30
   8   7   3    6.79    2.50
   8   7   3    8.31    4.43
  -8   7  -3    5.73    3.67
   8  -7  -3    8.04    3.59
  -8   7  -3    4.33    5.34
   8   7   3    5.78    3.05
   8  -7   4    4.90    4.13
  -8  -7  -4   -0.05    4.35
   8   7  -4    3.83    5.27
  -8  -7  -4    3.03    3.51
   8   7  -4    4.33    3.93
   8  -7   4   -0.67    3.61
   8   7  -4    4.96    4.03
  -8  -7  -4    0.07    4.93
  -8   7   4    4.53    5.07
   8  -7  -4    3.73    3.75
  -8   7  -4    6.68    4.15
  -8   7  -4    8.71    3.67
   8  -7  -4   -0.01    2.88
  -8   7  -4   -2.01    5.43
  -8  -7   4    1.11    3.50
   8   7   4    0.74    4.88
   8   7   4    1.51    2.50
   8   7   4    2.17    3.32
  -8  -7  -5    3.78    5.22
  -8  -7  -5    0.08    4.61
  -8  -7  -5    1.02    3.32
  -8   7   5    0.48    4.77
   8  -7   5    1.41    3.64
   8   7  -5    2.32    4.19
   8   7  -5    0.46    5.55
   8  -7   5   -8.12    4.54
   8  -7   5    1.36    3.83
   8   7   5    4.54    2.61
   8  -7  -5    3.73    3.69
  -8   7  -5    6.49    4.19
  -8   7  -5    0.88    5.41
  -8  -7   5   -0.75    2.63
   8  -7  -5   -2.85    2.77
  -8  -7   5   -0.80    3.37
  -8  -7   5   -0.20    3.82
   8   7   5    4.34    5.06
   8   7   5    1.05    3.23
  -8   7   6    2.56    5.50
   8  -7   6    0.64    3.98
  -8  -7  -6   -0.03    5.40
  -8  -7  -6    6.43    5.07
   8   7  -6    2.19    5.95
   8  -7   6   -0.82    4.19
   8   7  -6   -0.17    4.52
  -8  -7  -6    7.34    3.60
   8  -7   6   -8.54    5.42
  -8  -7  -6   -1.65    3.93
   8  -7  -6   -0.68    3.03
   8  -7  -6    3.89    4.07
  -8   7  -6    5.34    5.78
  -8  -7   6    2.66    3.98
  -8  -7   6    2.51    3.16
   8   7   6   -0.95    5.49
   8   7   6   -1.30    3.50
  -8  -7   6   -0.78    4.48
   8   7   6   -2.17    4.52
   8  -7  -6   -1.06    5.48
   8  -7   7   -1.67    4.07
   8  -7   7   -3.64    4.62
  -8  -7  -7    9.12    6.10
  -8   7   7   -1.08    5.67
   8  -7   7  -14.72    6.16
   8   7  -7   -2.98    4.95
  -8  -7  -7    5.15    3.62
  -8  -7  -7    8.05    5.21
   8   7  -7    7.67    6.50
  -8   7   7   -8.49    5.63
   8   7   7   -1.11    6.28
   8  -7  -7    4.48    6.18
   8  -7  -7    2.40    3.39
   8  -7  -7    1.89    4.21
  -8   7  -7    5.95    6.38
   8   7   7   -1.57    5.49
  -8  -7   7    2.58    5.24
   8   7   7    1.68    3.78
  -8  -7   7   -3.86    4.60
  -8  -7   7    1.65    3.37
   9  -7   0  101.19    4.12
   9   7   0  107.47    4.92
   9  -7   0  101.19    5.41
   9   7   0   99.00    4.32
  -9  -7   0  107.64    4.65
   9   7   0   92.98    6.19
  -9   7   0   93.51    5.24
  -9   7   0  102.61    8.38
  -9  -7   0  106.62    5.99
   9  -7   1   93.27    5.01
   9  -7   1   87.79    4.40
   9   7  -1   90.52    4.85
  -9  -7  -1  102.98    6.40
  -9   7   1   96.62    7.89
  -9  -7  -1  102.08    5.57
  -9   7   1   97.99    5.39
  -9  -7  -1  101.05    4.81
   9   7  -1   89.16    4.27
   9   7  -1   83.03    6.08
   9   7   1   93.25    6.51
   9  -7  -1   95.64    5.61
   9   7   1   92.09    4.14
   9   7   1   93.42    4.69
  -9   7  -1   94.47    5.41
  -9   7  -1  102.88    8.46
  -9  -7  -2  102.82    6.24
  -9   7   2  101.17    7.59
   9  -7   2  102.97    5.02
  -9  -7  -2  107.88    5.28
  -9   7   2  103.14    5.63
  -9  -7  -2  108.58    7.13
   9   7  -2  100.89    5.25
   9  -7   2  110.35    5.79
   9   7  -2   94.36    6.36
   9   7   2   95.29    7.39
  -9   7  -2  107.51    8.48
   9   7   2  102.83    4.32
   9  -7  -2   96.20    5.74
   9   7   2  104.86    5.03
  -9   7  -2  101.78    5.91
  -9  -7  -3   60.82    4.96
  -9  -7  -3   51.95    6.84
   9  -7   3   61.96    5.76
  -9   7   3   61.79    5.59
  -9   7   3   60.11    6.81
   9   7  -3   53.71    5.77
   9   7  -3   55.30    5.15
   9  -7   3   56.89    4.82
  -9  -7  -3   67.07    6.07
  -9   7  -3   63.29    7.93
   9   7   3   48.80    6.96
   9   7   3   64.52    4.70
   9   7   3   57.92    3.87
   9  -7  -3   62.98    5.68
  -9   7  -3   61.83    5.79
  -9  -7  -4   36.27    6.40
   9   7  -4   31.69    5.45
   9  -7   4   32.87    4.53
   9  -7   4   23.66    4.73
  -9   7   4   32.12    6.43
  -9  -7  -4   32.13    5.78
   9   7  -4   35.05    5.07
   9   7  -4   38.58    6.68
  -9  -7  -4   28.60    4.44
  -9   7  -4   34.15    4.61
  -9  -7   4   32.17    4.41
  -9   7  -4   36.35    5.25
   9  -7  -4   32.59    4.88
   9   7   4   30.41    3.43
  -9   7  -4   37.93    7.02
   9   7   4   30.19    4.18
   9   7   4   29.13    6.00
   9   7  -5   44.13    7.29
   9  -7   5   33.10    5.02
  -9   7   5   39.23    6.70
   9   7  -5   34.97    5.84
   9  -7   5   46.49    4.98
  -9  -7  -5   45.33    6.31
  -9  -7  -5   35.37    4.46
  -9  -7  -5   54.31    7.22
   9  -7  -5   43.52    5.36
  -9  -7   5   42.97    5.88
  -9  -7   5   34.75    4.89
  -9   7  -5   39.12    5.45
  -9   7  -5   48.19    7.41
   9   7   5   47.00    4.79
   9   7   5   35.19    3.67
  -9  -7   5   36.26    3.98
   9   7   5   33.65    6.31
  -9  -7  -6   24.02    4.26
  -9   7   6   14.07    6.19
   9  -7   6   13.20    4.35
   9   7  -6   20.96    5.88
  -9  -7  -6   29.26    6.72
  -9  -7  -6   33.68    6.51
   9  -7   6    8.26    6.12
   9  -7   6   15.31    4.98
   9   7  -6   24.05    7.04
   9  -7  -6   16.77    3.82
  -9  -7   6   20.33    4.99
   9  -7  -6   22.64    4.68
   9   7   6   15.71    6.44
   9   7   6   16.25    3.22
  -9  -7   6   13.66    3.55
  -9   7  -6   25.78    6.76
   9   7   6   17.85    4.21
  -9  -7   6   16.56    5.58
  -9   7  -6   16.35    5.12
   9  -7   7   -0.84    3.99
   9   7  -7    2.75    6.27
   9  -7   7    4.08    4.96
  -9  -7  -7    9.94    3.87
  -9  -7  -7   12.93    5.82
   9   7  -7    8.27    5.65
  -9   7   7    7.89    6.15
  -9  -7  -7   16.54    6.41
  -9  -7   7    3.74    3.50
   9  -7  -7   -5.13    5.95
  -9  -7   7    3.65    4.62
   9  -7  -7   10.09    3.62
  -9   7  -7   10.16    6.40
  -9  -7   7    4.58    5.47
   9  -7  -7    7.83    4.29
   9   7   7    4.73    4.01
   9   7   7    0.27    6.58
  10   7   0    1.11    3.84
 -10   7   0    7.28    6.10
  10   7   0    3.57    3.04
 -10   7   0    4.50    3.39
  10   7   0    0.81    2.59
 -10  -7   0    3.20    4.05
  10  -7   0    1.87    2.68
 -10   7   1    9.32    5.75
  10  -7   1    8.56    3.54
  10   7  -1    2.07    2.76
  10  -7   1    5.24    2.92
 -10  -7  -1    5.14    4.56
 -10   7   1    7.52    3.18
 -10  -7  -1    7.91    4.01
  10   7  -1    5.49    4.06
 -10  -7  -1    7.49    3.67
  10   7  -1    4.80    3.23
 -10   7  -1    4.44    3.44
  10   7   1    5.59    2.77
  10   7   1    6.46    4.03
 -10   7  -1    5.14    5.97
  10  -7  -1    5.02    3.40
  10   7   1    5.47    3.07
 -10  -7  -2    4.33    5.02
  10   7  -2    2.31    3.83
  10  -7   2    8.03    3.42
 -10  -7  -2    5.94    3.85
 -10  -7  -2    3.49    4.20
  10   7  -2    4.38    2.99
 -10   7   2    4.14    3.43
  10   7  -2    3.64    3.39
  10  -7   2    3.49    3.91
 -10   7   2    5.12    5.26
  10  -7  -2    7.07    3.94
  10   7   2    5.01    3.30
 -10   7  -2    4.00    5.77
  10   7   2    3.44    5.16
  10   7   2    2.51    2.75
 -10   7  -2    6.62    3.90
 -10   7   3   -1.60    3.51
 -10  -7  -3    1.72    5.26
  10   7  -3   -0.42    3.47
  10  -7   3    1.79    3.68
 -10  -7  -3    1.16    3.89
 -10  -7  -3    0.37    4.50
  10   7  -3   -0.15    3.87
 -10   7   3   -5.14    5.00
  10  -7   3    0.67    4.37
 -10   7  -3    1.06    4.11
  10   7   3    4.68    2.87
  10   7   3   -1.25    4.88
  10   7   3    2.30    3.41
  10  -7  -3    3.16    3.97
 -10   7  -3    2.87    5.67
 -10   7   4   -1.19    3.74
 -10  -7  -4    4.77    4.90
  10   7  -4    5.81    4.29
  10   7  -4    4.67    4.11
 -10   7   4    1.54    5.03
  10  -7   4   -1.88    3.48
 -10  -7  -4    1.28    3.61
  10  -7   4    0.61    4.40
 -10  -7  -4   -0.53    5.31
  10   7  -4    1.02    4.92
 -10   7  -4    5.13    5.38
  10   7   4    2.47    5.14
 -10  -7   4    2.89    3.37
  10   7   4   -3.28    2.67
  10  -7  -4    3.31    4.07
 -10   7  -4   -0.94    4.22
  10   7   4    4.60    3.39
  10  -7   5    7.17    4.15
 -10  -7  -5   12.21    5.58
 -10  -7  -5    8.10    3.84
  10  -7   5    5.75    3.93
  10   7  -5   15.71    6.05
 -10  -7  -5   13.42    6.03
 -10   7   5    6.49    5.34
  10   7  -5    8.13    4.93
 -10   7  -5   16.49    5.84
 -10   7  -5    9.16    3.97
  10   7   5   13.55    3.03
  10   7   5    5.13    5.54
 -10  -7   5    8.08    3.96
  10   7   5    9.93    3.72
  10  -7  -5    6.73    4.22
 -10  -7   5    5.58    4.45
 -10   7  -5    4.94    4.68
 -10  -7  -6    2.23    3.83
 -10  -7  -6   10.47    6.37
  10   7  -6    3.98    5.32
  10  -7   6    3.67    4.49
  10   7  -6    4.56    5.99
 -10  -7  -6    9.08    5.93
 -10   7   6    5.01    5.83
  10  -7   6    0.26    3.89
 -10  -7   6    7.09    4.95
 -10  -7   6    1.92    3.07
 -10  -7   6    1.96    4.38
  10   7   6    4.62    3.88
  10   7   6    0.37    5.92
  10  -7  -6    4.82    4.23
 -10   7  -6    9.11    5.97
  10   7   6    2.32    3.00
 -10   7  -6    4.82    4.94
  10   7  -7    4.57    5.60
  10  -7   7   -7.63    4.53
 -10  -7  -7    2.53    3.81
  10  -7   7    1.35    4.32
  10   7  -7    3.85    6.27
 -10  -7  -7   11.48    6.46
 -10   7   7    1.60    6.05
 -10  -7  -7    2.41    5.91
  10  -7  -7    2.36    4.33
  10   7   7   -6.87    6.35
 -10   7  -7    8.36    6.14
 -10  -7   7    4.85    3.67
  10   7   7    5.13    4.03
 -10  -7   7   -0.77    4.43
 -10  -7   7    3.47    5.40
  11   7   0   44.91    6.23
 -11  -7   0   54.53    5.41
  11  -7   0   49.90    4.03
 -11   7   0   48.38    5.34
  11   7   0   49.21    4.78
  11   7   0   48.54    4.15
 -11  -7   0   55.46    6.19
 -11   7   0   51.26    8.55
  11  -7   1   37.13    4.23
 -11   7   1   28.90    4.34
  11   7  -1   23.92    5.04
  11   7  -1   29.08    3.76
  11   7  -1   25.96    4.05
 -11  -7  -1   32.35    5.59
 -11   7   1   29.86    6.64
 -11  -7  -1   27.38    4.86
 -11  -7  -1   33.92    4.56
  11  -7   1   33.11    3.75
  11  -7  -1   30.15    3.27
 -11   7  -1   25.44    4.42
  11   7   1   22.84    4.95
  11   7   1   25.53    3.88
  11   7   1   28.30    3.52
 -11   7  -1   32.65    7.11
  11  -7  -1   33.94    4.73
  11  -7   2   34.38    4.23
  11  -7   2   43.63    5.31
 -11  -7  -2   38.49    6.21
 -11  -7  -2   31.85    5.31
  11   7  -2   30.74    5.15
  11   7  -2   31.13    4.03
  11   7  -2   34.23    4.51
 -11   7   2   38.20    6.74
 -11  -7  -2   44.36    4.92
 -11   7   2   37.69    5.24
 -11   7  -2   40.44    5.19
  11   7   2   37.24    4.46
  11   7   2   35.01    3.90
 -11   7  -2   47.39    7.42
  11   7   2   36.77    6.33
  11  -7  -2   39.17    5.10
 -11  -7  -3   18.85    5.50
 -11  -7  -3   24.69    6.21
 -11   7   3   21.46    4.53
  11  -7   3   20.07    4.72
  11  -7   3   17.77    4.03
 -11   7   3   20.05    6.05
 -11  -7  -3   22.71    4.58
  11   7  -3   25.01    4.62
  11   7  -3   19.50    4.85
  11   7   3   23.47    6.17
 -11   7  -3   28.94    6.50
  11   7   3   17.11    3.95
 -11   7  -3   23.57    4.94
  11  -7  -3   22.01    4.75
  11   7   3   23.01    3.45
 -11  -7  -4   19.88    5.96
  11   7  -4   14.55    4.85
 -11  -7  -4   21.93    5.54
  11  -7   4   19.54    5.05
  11   7  -4   17.89    4.83
 -11   7   4   15.87    4.37
 -11   7   4   17.54    5.65
 -11  -7  -4   18.27    4.20
  11  -7   4   13.43    4.01
  11  -7  -4   15.86    4.55
 -11   7  -4   13.92    4.79
  11   7   4   22.16    3.89
 -11  -7   4   19.06    4.08
 -11   7  -4   21.05    5.86
  11   7   4   16.08    3.16
  11   7   4   15.48    5.77
  11  -7   5   21.77    5.42
 -11  -7  -5   31.28    6.70
 -11  -7  -5   30.89    6.51
  11   7  -5   20.72    5.73
 -11  -7  -5   15.12    4.28
 -11   7   5   17.28    4.94
 -11   7   5   11.86    6.02
  11   7  -5   23.15    6.46
  11  -7   5   20.69    4.42
 -11   7  -5   20.30    5.41
 -11  -7   5   17.69    4.53
  11  -7  -5   21.75    4.97
  11   7   5   16.94    4.12
  11   7   5   18.28    3.39
  11   7   5   21.75    6.41
 -11   7  -5   18.98    6.24
 -11   7  -5   18.42    4.62
 -11  -7  -6   14.50    6.59
 -11   7   6   14.86    5.05
  11   7  -6   12.10    5.82
 -11  -7  -6    2.49    4.13
 -11   7   6    0.15    5.70
  11  -7   6    4.91    4.33
  11  -7   6   -7.46    5.51
  11   7  -6   13.71    6.63
 -11  -7  -6   10.13    6.52
  11  -7   6    1.78    4.47
  11  -7  -6    5.27    4.54
 -11  -7   6    4.43    4.45
  11   7   6    8.20    4.06
  11   7   6    7.61    6.64
 -11  -7   6   10.61    5.43
 -11   7  -6   -3.45    4.12
 -11   7  -6    6.01    5.24
 -11  -7   6    2.34    3.01
 -11   7  -6    9.70    5.90
  11   7   6    5.78    3.09
  11  -7   7    2.94    5.06
 -11  -7  -7   13.17    4.25
 -11  -7  -7    3.81    6.63
 -11  -7  -7   10.31    6.25
 -11   7   7   -4.73    5.83
  11   7  -7    6.72    6.67
  11  -7   7    5.92    4.65
  11   7  -7    4.96    5.81
  11  -7  -7    1.56    4.59
  11   7   7   -4.30    6.70
 -11   7  -7   10.99    6.33
 -11  -7   7    2.49    3.65
 -11  -7   7    2.86    5.78
  11   7   7    5.15    4.29
 -11  -7   7    3.76    4.90
 -12  -7   0    0.41    4.89
  12   7   0    4.67    4.72
 -12  -7   0    5.51    4.42
  12   7   0    3.62    3.20
 -12  -7   0    0.76    4.11
 -12   7   0    5.08    6.94
  12  -7   0    1.14    3.01
 -12   7   0    3.47    3.80
  12   7   0    2.81    3.55
  12   7  -1   -0.47    3.07
  12  -7   1    1.81    3.70
 -12  -7  -1    7.78    5.21
 -12   7   1   -1.36    6.15
  12  -7   1    3.09    3.31
  12   7  -1    0.19    3.46
 -12  -7  -1   -1.66    4.11
  12   7  -1    0.52    4.49
 -12  -7  -1   -0.08    4.51
 -12   7   1    2.42    3.76
  12   7   1    2.86    3.64
 -12   7  -1    3.35    6.32
  12  -7  -1    5.29    2.93
  12   7   1    1.96    3.09
  12  -7  -1    1.12    4.16
 -12   7  -1    1.49    4.12
  12   7   1    0.69    4.60
 -12  -7  -2    9.40    5.15
  12  -7   2   10.21    4.25
  12  -7   2    4.64    3.38
 -12  -7  -2    4.22    5.68
  12   7  -2    6.92    3.54
  12   7  -2    5.72    4.44
 -12  -7  -2    7.95    4.27
  12   7  -2    7.82    4.06
 -12   7   2    4.58    3.69
 -12   7   2    7.95    6.03
 -12   7  -2    5.93    5.89
  12   7   2    7.09    3.81
 -12   7  -2    8.10    4.36
  12   7   2    7.27    3.05
  12  -7  -2    7.79    4.24
  12   7   2    7.13    5.78
  12   7  -3    7.58    4.45
 -12   7   3    6.86    4.00
  12  -7   3   10.35    4.34
 -12  -7  -3   11.40    4.15
  12   7  -3    7.85    4.07
 -12  -7  -3   13.18    5.28
 -12  -7  -3   11.50    5.72
  12  -7   3   13.25    3.81
 -12   7   3    7.94    5.58
 -12   7  -3   12.30    5.53
 -12   7  -3   11.87    4.57
  12   7   3    4.09    5.40
  12   7   3   14.28    4.01
  12  -7  -3    7.41    4.43
  12   7   3   13.97    3.12
 -12   7   4    3.60    5.45
 -12  -7  -4    6.11    4.24
  12   7  -4   14.52    5.04
  12  -7   4    8.93    3.96
  12  -7   4    4.49    4.67
 -12  -7  -4    9.91    5.61
  12   7  -4    7.13    4.69
 -12  -7  -4   11.13    6.07
 -12   7   4    9.04    4.58
  12   7   4    7.77    5.54
  12  -7  -4    2.02    4.23
 -12   7  -4   18.94    5.55
  12   7   4    8.16    3.08
  12   7   4    6.80    3.75
 -12   7  -4    6.34    4.70
 -12   7  -4   12.00    4.48
  12  -7   5    6.21    4.10
 -12  -7  -5    3.66    4.14
 -12  -7  -5   14.26    6.22
  12  -7   5   -3.10    4.92
  12   7  -5    2.34    4.89
 -12   7   5   -0.31    5.66
  12   7  -5    8.78    5.17
 -12  -7  -5    3.19    6.37
 -12   7   5    2.14    4.50
 -12   7  -5   11.68    5.63
  12  -7  -5   -2.79    4.28
 -12  -7   5    7.19    4.10
  12   7   5    0.94    5.85
 -12   7  -5    3.00    4.42
  12   7   5    7.51    3.86
 -12   7  -5    2.81    5.02
  12   7   5    5.68    3.00
 -12  -7  -6   14.44    6.83
 -12  -7  -6   12.04    4.39
  12   7  -6    9.83    5.73
 -12  -7  -6   12.71    6.59
  12  -7   6    1.95    5.40
 -12   7   6    5.43    4.92
 -12   7   6    5.10    6.09
  12  -7   6    5.15    4.23
 -12  -7   6    5.53    2.91
 -12   7  -6    5.82    5.45
  12   7   6    0.89    6.48
  12  -7  -6    4.32    4.58
 -12   7  -6   11.43    5.86
 -12  -7   6    9.65    5.46
 -12  -7   6    4.00    4.58
  12   7   6   13.49    3.35
  12   7   6    8.32    3.99
 -13   7   0    5.65    6.90
  13   7   0   14.61    3.52
 -13  -7   0   14.45    5.31
  13  -7   0   14.94    3.32
  13   7   0   12.53    4.97
 -13  -7   0   16.51    4.55
 -13   7   0   14.52    4.33
  13   7   0   15.87    4.12
 -13  -7  -1   11.80    5.49
 -13  -7  -1   13.75    4.95
  13   7  -1   10.85    4.74
  13  -7   1   11.31    3.81
 -13   7   1   14.40    4.10
 -13  -7  -1   10.31    4.56
  13   7  -1   13.56    3.95
  13  -7   1   15.44    3.57
 -13   7   1    1.77    6.10
  13   7  -1   10.47    3.43
 -13   7  -1   16.55    6.30
  13  -7  -1    9.63    2.91
  13   7   1   11.03    3.28
 -13  -7   1   10.78    4.76
  13   7   1   17.12    3.93
 -13   7  -1   13.81    4.38
  13   7   1    8.60    5.04
 -13  -7  -2    1.36    4.12
  13  -7   2   11.82    4.01
 -13   7   2    2.51    3.83
  13   7  -2    5.71    3.43
 -13   7   2   -0.09    5.95
  13   7  -2   10.86    4.75
  13   7  -2   10.23    4.00
 -13  -7  -2    9.86    5.69
 -13  -7  -2    7.69    5.16
  13  -7   2    8.97    3.44
 -13   7  -2   17.00    5.60
  13   7   2   11.83    3.74
  13   7   2    7.96    3.17
 -13   7  -2    3.36    4.28
  13   7   2    5.16    5.50
  13  -7  -2    6.13    4.31
 -13  -7  -3    7.85    5.85
 -13   7   3   -1.15    5.32
  13  -7   3    7.18    3.47
 -13  -7  -3    2.93    4.28
  13   7  -3    6.89    4.31
 -13   7   3    8.98    4.22
 -13  -7  -3    6.68    5.39
  13   7  -3    4.67    4.48
  13  -7   3    6.78    4.10
  13   7   3    8.06    3.22
 -13   7  -3    4.72    4.61
  13  -7  -3    8.40    4.58
  13   7   3    7.39    3.94
 -13   7  -3   18.12    5.53
  13   7   3    5.99    5.76
 -13   7   4    9.27    5.93
 -13   7   4    8.60    4.68
 -13  -7  -4   17.61    6.57
  13   7  -4   15.18    5.15
  13   7  -4   15.41    5.49
  13  -7   4    8.42    4.90
 -13  -7  -4   15.59    6.36
  13  -7   4   10.60    4.15
 -13  -7  -4    9.76    4.55
  13   7   4    4.74    6.08
  13  -7  -4   11.03    4.95
 -13   7  -4   11.24    5.19
 -13   7  -4   18.62    5.43
 -13   7  -4   10.23    5.02
  13   7   4   16.66    4.14
  13   7   4   13.23    3.29
  13   7  -5   -0.23    5.10
  13  -7   5    1.29    4.11
 -13  -7  -5    6.85    4.58
 -13  -7  -5    8.17    6.39
 -13   7   5    1.15    5.71
  13   7  -5    3.61    5.07
 -13   7   5    0.12    4.62
 -13  -7  -5    4.05    6.55
  13  -7   5   -2.93    4.94
 -13  -7   5    3.17    4.01
 -13   7  -5    0.69    5.24
  13   7   5    4.55    3.82
 -13   7  -5    8.53    5.46
 -13   7  -5   -2.15    4.75
  13   7   5    7.87    3.36
  13   7   5    3.36    6.13
  13  -7  -5   -0.02    4.64
  13   7  -6    3.78    5.37
 -13  -7  -6    0.97    4.42
 -13   7   6   -1.68    6.27
 -13   7   6    3.83    5.10
 -13  -7  -6   11.13    6.77
  13  -7   6   -0.80    5.35
 -13  -7  -6   11.01    6.98
  13  -7   6    0.13    4.16
 -13   7  -6   -0.08    5.17
  13  -7  -6   -5.92    4.35
 -13  -7   6    0.10    4.62
 -13   7  -6   -5.66    5.42
  13   7   6    0.54    6.48
  13   7   6    5.04    3.36
 -13  -7   6    4.01    3.19
 -13  -7   6    5.73    5.69
  13   7   6    6.15    4.08
 -14   7   0   -3.26    6.33
 -14  -7   0    2.99    4.46
 -14  -7   0    1.39    4.16
  14   7   0    0.03    4.27
  14   7   0    7.28    3.37
 -14  -7   0    5.31    5.05
  14  -7   0    5.66    3.14
 -14   7   0    2.19    4.11
  14   7   0    0.10    3.65
  14  -7   0    6.71    3.44
  14  -7   1    3.00    3.16
  14   7  -1    1.31    3.21
 -14  -7  -1    2.70    5.28
 -14   7   1   -1.25    4.00
 -14  -7  -1    0.22    4.68
  14   7  -1    4.68    4.55
  14   7  -1    2.33    3.76
 -14  -7  -1   -0.73    4.24
  14  -7   1    5.51    3.66
 -14   7   1   -4.06    6.26
  14  -7  -1    7.89    2.92
 -14   7  -1    3.45    4.28
 -14  -7   1    5.78    4.66
 -14   7  -1   10.97    5.91
  14   7   1    5.37    3.58
  14   7   1    2.75    2.93
  14   7   1    9.38    5.27
  14   7  -2   16.71    4.38
  14  -7   2    1.71    3.37
 -14  -7  -2    3.81    5.84
 -14   7   2   -7.34    5.94
  14   7  -2    5.60    3.54
 -14  -7  -2    1.78    5.20
 -14   7   2    1.46    4.16
  14   7  -2    9.86    4.81
 -14  -7  -2    1.42    4.35
  14  -7   2    9.39    4.03
  14   7   2   13.12    3.90
  14   7   2    7.21    3.20
 -14   7  -2   15.64    5.27
  14   7   2    6.59    5.40
  14  -7  -2    9.56    2.91
 -14   7  -2    1.52    4.47
 -14   7   3    7.68    4.54
 -14  -7  -3    2.01    4.35
  14  -7   3    7.71    3.77
  14   7  -3   10.02    4.74
 -14  -7  -3    8.81    6.34
  14   7  -3   10.39    5.13
  14  -7   3   12.13    4.55
 -14  -7  -3   14.02    6.38
 -14   7   3   -1.57    5.69
 -14   7  -3   18.00    5.57
 -14   7  -3    4.70    4.78
  14   7   3    6.73    5.91
  14   7   3    8.27    4.15
  14   7   3    7.41    3.33
  14  -7  -3   11.50    5.10
  14  -7   4    7.76    4.80
 -14   7   4   16.16    5.01
 -14  -7  -4   15.82    4.91
  14   7  -4   10.92    5.28
  14  -7   4    9.38    4.02
 -14   7   4   -2.57    5.84
  14   7  -4    8.29    5.07
 -14  -7  -4   17.15    6.91
 -14  -7  -4    7.25    6.58
 -14   7  -4    7.73    5.32
  14  -7  -4   10.53    5.09
  14   7   4    9.31    4.20
  14   7   4    7.97    6.36
 -14   7  -4    8.20    5.43
  14   7   4    6.05    3.28
  14   7  -5    6.75    5.52
 -14  -7  -5    3.39    4.67
  14  -7   5   -3.29    4.85
  14   7  -5    5.81    5.40
  14  -7   5    9.98    4.29
 -14  -7  -5    9.13    6.59
 -14  -7  -5   -2.35    6.49
 -14   7   5   12.52    5.14
  14   7   5    4.27    6.31
 -14   7  -5   -1.29    5.42
  14   7   5    8.29    4.14
 -14  -7   5    6.16    4.07
  14  -7  -5    6.00    4.93
  14   7   5    4.86    3.41
 -14   7  -5    1.71    5.22
  15   7   0   -2.19    3.29
 -15  -7   0   -2.59    4.25
 -15  -7   0   -0.96    4.73
  15  -7   0    4.52    3.12
 -15   7   0    1.99    4.24
  15   7   0    2.91    4.60
  15   7   0    5.35    4.03
 -15  -7   0    4.17    5.25
 -15   7   1  -11.72    6.43
  15   7  -1    2.06    3.96
 -15   7   1    0.15    4.04
  15   7  -1    0.22    3.30
  15  -7   1    6.36    3.71
 -15  -7  -1    1.11    5.56
 -15  -7  -1    0.24    4.46
 -15  -7  -1    0.75    5.27
  15   7  -1    5.77    4.73
  15  -7   1    8.74    3.44
  15   7   1    0.82    5.21
 -15   7  -1    0.20    4.50
  15  -7  -1    3.34    2.96
 -15  -7   1   -3.51    4.83
  15   7   1    5.57    3.97
  15   7   1   -0.82    3.25
 -15  -7  -2    1.26    5.90
 -15   7   2   -6.34    6.04
  15   7  -2    3.83    3.74
  15   7  -2    9.20    4.45
 -15  -7  -2    5.26    6.17
  15  -7   2    1.49    3.54
 -15   7   2   -1.63    4.26
  15  -7   2    7.93    4.07
  15   7  -2   10.46    5.09
 -15  -7  -2    3.76    4.65
  15   7   2    5.93    3.23
 -15   7  -2    3.03    4.78
  15  -7  -2    6.03    2.89
  15   7   2    9.56    5.93
  15   7   2    7.83    4.05
  15   7  -3    6.69    4.70
  15  -7   3    0.52    3.65
  15   7  -3   12.72    5.17
 -15  -7  -3    7.10    6.55
 -15   7   3   -0.30    4.62
 -15  -7  -3    1.70    6.38
  15  -7   3   -3.46    4.11
 -15  -7  -3    1.23    4.51
 -15   7   3   -6.73    5.62
 -15   7  -3   -0.37    4.81
  15   7   3    0.90    3.21
  15   7   3    4.87    6.32
  15   7   3    3.09    4.13
  15  -7  -3    6.81    5.26
  15   7  -4    0.77    4.96
  15  -7   4   -0.72    4.66
 -15  -7  -4   -1.58    6.52
  15  -7   4    3.37    3.93
 -15  -7  -4    0.06    6.65
 -15  -7  -4    3.60    4.95
  15   7  -4   11.43    5.46
 -15   7   4    1.66    4.69
 -15   7   4   -7.30    5.95
  15   7   4   -0.32    6.30
  15  -7  -4    0.89    4.85
 -15   7  -4   -0.01    5.24
  15   7   4    3.23    3.26
  15   7   4    3.50    4.32
 -15   7  -4    8.45    5.84
 -15   7   5   -7.69    6.01
 -15  -7  -5    2.81    6.93
  15  -7   5    3.08    5.18
 -15   7   5    5.05    5.10
  15   7  -5    0.06    5.15
 -15  -7  -5    1.99    4.96
 -15  -7  -5    4.41    6.91
  15  -7   5    2.55    4.03
  15   7  -5   -2.42    5.52
  15   7   5    0.64    6.62
  15   7   5    3.45    3.34
  15   7   5   -0.54    4.09
 -15  -7   5    6.21    4.16
 -15   7  -5   -5.20    5.71
  15  -7  -5   -3.94    4.80
 -15   7  -5   -9.61    5.46
  16   7   0   12.76    4.83
 -16  -7   0   -1.17    5.41
 -16  -7   0    0.57    5.18
  16  -7   0    7.18    3.26
 -16  -7   0    2.78    4.65
  16   7   0    4.25    4.35
  16   7   0    2.12    3.76
 -16   7   0    3.84    4.73
  16  -7   0    3.29    3.59
  16   7  -1   -4.54    3.49
 -16  -7  -1   -1.51    5.84
  16   7  -1   13.05    5.01
  16   7  -1    5.19    4.37
  16  -7   1    6.25    3.73
  16  -7   1    3.24    3.35
 -16  -7  -1   -0.48    4.68
 -16   7   1   -1.18    4.60
 -16  -7  -1   -2.52    5.53
 -16  -7   1   -0.44    5.08
  16  -7  -1    4.38    2.98
 -16  -7   1   -2.12    4.66
 -16   7  -1    0.44    4.80
  16   7   1    1.53    3.25
  16   7   1    7.00    5.33
  16   7   1    9.67    4.29
 -16  -7  -2    8.95    4.94
  16  -7   2    8.93    4.16
  16   7  -2    9.64    5.26
  16   7  -2    4.89    4.57
 -16   7   2   -3.70    4.77
 -16  -7  -2    4.71    6.39
  16  -7   2    4.04    3.61
  16   7  -2    4.25    3.79
 -16  -7  -2   -6.28    6.13
  16   7   2    6.68    3.51
  16  -7  -2    7.75    3.01
 -16   7  -2   -3.21    4.62
  16   7   2   12.34    4.34
  16   7   2    6.04    5.95
  16   7  -3    4.48    4.72
 -16  -7  -3    5.58    4.70
  16  -7   3    1.71    4.33
  16   7  -3   13.52    5.33
  16  -7   3    1.44    3.70
 -16  -7  -3    1.55    6.75
 -16   7   3    2.56    4.83
 -16  -7  -3    3.79    6.56
  16   7   3    2.65    4.17
  16   7   3    4.16    3.31
 -16   7  -3    2.11    5.04
  16   7   3   12.12    6.55
  16  -7   4    0.56    4.76
  16   7  -4    5.01    5.37
 -16  -7  -4    1.60    6.84
 -16  -7  -4   -4.44    4.82
 -16  -7  -4    3.24    6.90
  16   7  -4    3.29    5.23
 -16   7   4   -4.61    4.89
  16  -7   4    6.24    4.03
  16   7   4    3.59    6.31
 -16   7  -4    5.95    6.32
 -16   7  -4   -3.91    5.20
  16  -7  -4   -1.15    5.08
  16   7   4    8.00    4.58
  16   7   4    3.67    3.19
 -17  -7   0    1.78    6.02
 -17  -7   0    0.77    4.79
  17   7   0   16.09    4.79
 -17   7   0    3.34    5.20
  17   7   0    6.46    3.93
  17  -7   0    3.82    3.24
 -17  -7   0    6.97    5.75
  17   7   0   15.00    5.18
  17  -7   0   13.13    3.77
 -17  -7  -1    1.17    5.19
  17  -7   1    5.36    3.49
  17   7  -1    4.34    3.87
  17   7  -1    5.24    4.50
  17  -7   1   12.09    3.92
 -17   7   1    4.92    5.19
 -17  -7  -1    3.46    5.96
 -17  -7  -1    4.91    6.61
 -17  -7   1   -0.99    5.27
  17   7   1    3.00    3.64
  17   7   1   13.67    4.54
  17   7   1   12.76    5.63
 -17  -7   1   -4.83    5.42
 -17   7  -1    3.98    5.21
  17  -7  -1   13.23    3.29
  17   7  -2    2.54    4.03
  17   7  -2    6.36    4.67
 -17  -7  -2    3.40    4.94
  17  -7   2    9.29    3.67
  17  -7   2    9.69    4.20
  17   7  -2   17.57    5.77
 -17   7   2    3.17    5.25
 -17  -7  -2    0.63    6.82
 -17  -7  -2    1.95    6.54
  17   7   2   15.70    6.43
  17   7   2   12.44    3.88
 -17   7  -2   -1.11    4.91
  17  -7  -2    8.83    3.11
  17   7   2   13.83    4.45
 -17  -7  -3   -9.82    6.17
 -17   7   3   -1.82    5.24
 -17  -7  -3   -0.86    6.86
  17   7  -3   10.07    5.30
  17  -7   3   10.38    4.45
  17  -7   3    6.92    3.94
  17   7  -3    2.22    4.83
 -17  -7  -3   -6.39    4.89
  17   7   3   10.22    6.49
 -17   7  -3   -1.41    5.15
  17   7   3    8.28    3.63
  17   7   3    9.95    4.45
  18   7   0    4.48    4.64
 -18   7   0   -2.22    5.18
 -18  -7   0   -0.25    5.04
 -18  -7   0    6.38    6.06
  18   7   0    9.65    4.23
  18  -7   0    5.08    3.36
  18   7   0   20.95    5.66
  18  -7   0   12.99    3.58
 -18  -7   0    0.95    5.92
  18  -7   1    5.22    3.85
  18  -7   1    6.21    3.52
 -18   7   1   -7.94    5.01
  18   7  -1   18.94    5.36
 -18  -7  -1   -4.16    6.24
 -18  -7  -1    1.69    6.30
  18   7  -1   -1.74    3.80
  18   7  -1    9.90    4.96
 -18  -7  -1   -3.43    4.96
 -18  -7   1   -4.90    6.08
 -18  -7   1    4.11    4.92
  18   7   1    5.40    4.42
 -18   7  -1    1.85    5.32
  18   7   1   15.44    5.51
  18   7   1   10.09    3.92
  18  -7  -1    6.52    3.23
 -18  -7   1   -1.65    5.63
 -18  -7  -2    0.36    5.21
 -18  -7  -2   -2.28    7.09
  18   7  -2    4.59    4.17
 -18   7   2   -4.70    5.41
 -18  -7  -2   -3.03    6.68
  18   7  -2   19.06    5.74
  18   7  -2    8.46    4.91
  18  -7   2    2.12    3.51
  18  -7   2    7.37    4.23
  18   7   2   11.70    6.24
 -18   7  -2   -1.05    5.21
  18   7   2    1.36    3.66
  18   7   2   15.55    4.68
   0   8   0    2.68    3.71
   0   8  -1    8.64    3.97
   0  -8  -1    5.69    2.06
   0   8   1   13.83    4.01
   0  -8   1    9.92    2.11
   0  -8  -1    5.71    2.39
   0  -8  -1    6.53    2.12
   0   8   2   47.71    4.90
   0  -8   2   52.00    3.87
   0  -8  -2   53.79    3.29
   0   8  -2   48.71    3.77
   0  -8   2   47.06    3.38
   0   8  -2   49.65    5.53
   0  -8  -2   47.09    4.10
   0  -8  -2   48.28    3.67
   0  -8   3    5.86    2.54
   0   8   3    6.94    3.56
   0   8   3    4.98    3.17
   0  -8  -3    2.85    2.83
   0  -8   3    4.41    2.88
   0   8  -3    3.55    2.96
   0  -8  -3    4.27    2.42
   0  -8  -3    2.79    2.64
   0  -8   3    5.11    2.89
   0   8  -3    0.89    3.87
   0  -8   4    1.70    2.88
   0   8  -4    1.95    4.75
   0  -8   4   -3.82    3.33
   0  -8   4    3.10    3.33
   0  -8  -4   -0.96    3.02
   0   8  -4    0.74    3.62
   0   8   4    1.17    3.97
   0  -8  -4    2.15    3.49
   0  -8  -4   -0.70    2.73
   0   8   4    1.41    3.78
   0  -8   5   -1.24    4.29
   0  -8  -5    0.33    4.34
   0  -8  -5    0.86    4.55
   0  -8   5    4.19    3.88
   0   8   5    9.55    4.97
   0  -8   5   -0.52    3.22
   0  -8  -5    3.34    3.15
   0   8  -5    2.71    5.40
   0   8   5    1.55    4.74
   0  -8  -5    3.54    4.01
   0   8   6   -2.55    5.01
   0  -8  -6    0.01    4.23
   0  -8  -6   -0.77    4.00
   0  -8  -6    5.23    4.91
   0   8  -6    3.40    5.40
   0   8   6    0.39    5.18
   0  -8   6    1.39    3.67
   0  -8   6   -0.26    3.12
   0  -8   6   -3.23    4.66
   0  -8  -6   -2.26    3.18
   0  -8   7   -1.25    5.20
   0  -8  -7    1.60    5.31
   0  -8   7   -3.22    4.24
   0  -8   7   -1.48    3.97
   0  -8  -7    1.61    4.60
   0   8  -7    3.63    5.86
   0   8   7   -1.88    5.81
   0   8   7  -10.17    5.77
   0  -8  -7    8.98    3.72
   0  -8  -7    5.66    4.49
   0   8   8   -1.67    6.38
   0  -8  -8   12.42    3.72
   0   8   8   -3.52    6.84
   0  -8   8  -10.32    4.08
   0  -8  -8   13.24    4.81
   0  -8   8   -5.66    5.00
   0  -8  -8   -2.75    5.51
   0  -8   8   -3.29    5.96
   0  -8  -8    9.41    4.87
   0   8  -8    6.18    6.52
   1   8   0  199.22    5.47
  -1   8   0  206.29    8.09
   1   8   0  200.13    7.93
   1  -8   0  207.54    5.36
  -1  -8  -1  193.42    5.85
   1   8  -1  185.12    5.54
   1   8  -1  175.34    7.56
   1  -8   1  188.00    4.82
  -1  -8  -1  186.97    5.36
  -1   8   1  180.33    7.63
  -1  -8  -1  181.09    4.81
   1   8   1  188.10    7.36
   1  -8  -1  186.89    5.21
  -1   8  -1  178.05    8.09
  -1  -8   1  186.51    4.76
   1   8   1  196.74    5.93
   1  -8  -1  183.18    5.57
   1  -8  -1  187.02    4.74
   1  -8   2  253.42    6.58
   1  -8   2  246.37    6.28
   1   8  -2  232.39    8.84
  -1  -8  -2  257.16    7.37
  -1   8   2  239.99    8.39
  -1  -8  -2  261.34    6.82
   1   8  -2  257.99    7.05
  -1  -8  -2  264.07    6.13
  -1  -8   2  242.85    6.06
   1   8   2  243.35    6.90
   1  -8  -2  243.95    6.94
  -1   8  -2  233.38    8.96
   1   8   2  238.26    8.06
   1  -8  -2  232.43    6.36
   1  -8  -2  244.63    5.89
  -1  -8   2  245.03    6.34
  -1  -8  -3  167.96    6.59
   1   8  -3  162.64    8.21
   1  -8   3  173.97    6.09
  -1  -8  -3  171.54    6.09
   1   8  -3  173.03    6.48
   1  -8   3  176.49    6.46
   1  -8   3  172.23    5.68
  -1   8   3  167.81    7.64
  -1  -8  -3  168.55    5.26
   1  -8  -3  171.76    6.52
   1   8   3  162.50    6.54
   1  -8  -3  165.78    5.15
  -1  -8   3  176.93    6.07
  -1   8  -3  163.75    8.35
  -1  -8   3  171.97    5.55
  -1   8  -3  175.17    6.52
   1  -8  -3  170.64    5.97
   1   8   3  163.88    7.42
  -1  -8   3  179.43    6.57
   1   8  -4   70.73    5.87
   1  -8   4   72.16    5.72
  -1   8   4   68.00    6.57
   1  -8   4   73.05    5.38
  -1  -8  -4   69.25    5.34
   1  -8   4   72.01    4.78
   1   8  -4   72.19    7.46
  -1  -8  -4   69.53    5.88
  -1  -8  -4   67.00    4.37
  -1   8   4   71.51    5.78
   1  -8  -4   67.08    5.60
  -1   8  -4   67.32    7.36
   1   8   4   74.18    6.50
  -1  -8   4   73.37    5.97
  -1   8  -4   74.90    5.92
  -1  -8   4   76.75    4.74
  -1  -8   4   82.08    5.38
   1  -8  -4   68.56    4.25
   1  -8  -4   64.59    5.01
   1   8   4   75.22    6.26
  -1   8   5   52.55    6.53
  -1  -8  -5   45.12    5.73
  -1  -8  -5   49.29    6.01
   1  -8   5   53.39    5.03
   1   8  -5   45.49    6.42
   1   8  -5   44.32    7.79
  -1   8   5   48.20    7.00
  -1  -8  -5   47.24    4.50
   1  -8   5   54.97    6.41
   1  -8   5   45.80    5.48
  -1  -8  -5   50.82    6.65
  -1  -8   5   46.49    4.76
   1  -8  -5   55.52    6.92
  -1  -8   5   49.26    5.49
   1   8   5   52.16    6.86
   1  -8  -5   44.46    5.41
   1  -8  -5   47.55    4.42
   1   8   5   55.63    7.07
  -1  -8   5   60.30    6.48
   1  -8  -5   49.07    6.01
  -1   8  -5   46.35    7.92
  -1  -8  -6   31.92    5.25
  -1  -8  -6   31.69    6.28
  -1  -8  -6   37.73    5.87
   1  -8   6   34.72    6.32
   1  -8   6   15.73    4.05
  -1  -8  -6   31.94    4.21
   1   8  -6   28.76    6.95
  -1   8   6   17.97    5.70
   1  -8   6   16.94    4.33
  -1   8   6   27.97    6.68
   1   8   6   26.98    6.52
   1  -8  -6   26.24    6.08
  -1  -8   6   15.38    3.78
   1  -8  -6   34.39    5.16
   1  -8  -6   26.99    4.08
  -1  -8   6   25.03    5.65
   1   8   6   24.97    6.07
  -1   8  -6   25.82    6.76
  -1  -8   6   24.18    4.70
   1  -8  -6   32.22    5.52
  -1  -8  -7   26.56    5.47
   1  -8   7   10.88    4.96
  -1  -8  -7   18.35    3.75
   1   8  -7   12.60    6.64
   1  -8   7    8.02    5.96
  -1  -8  -7   13.67    5.99
   1  -8   7    7.84    4.41
  -1  -8  -7   12.60    5.27
  -1   8   7    3.18    6.24
  -1   8   7    9.17    6.57
   1  -8  -7   21.79    4.04
   1   8   7    9.73    6.34
  -1   8  -7   23.65    7.19
  -1  -8   7    2.09    3.73
   1  -8  -7   20.08    5.35
  -1  -8   7   10.61    4.76
   1  -8  -7   15.49    6.09
  -1  -8   7   13.58    6.13
   1  -8  -7   16.72    4.89
   1   8   7    3.58    6.31
  -1  -8  -8   18.02    4.00
  -1  -8  -8   16.41    4.94
  -1  -8  -8    3.92    5.83
  -1   8   8  -10.98    6.84
   1  -8   8    0.29    5.37
   1   8  -8    9.62    6.65
  -1   8   8    4.69    6.73
   1  -8   8    3.76    6.49
  -1  -8  -8   16.89    5.47
   1  -8   8    5.80    4.86
  -1  -8   8    1.92    5.16
   1  -8  -8   13.92    3.76
  -1   8  -8    4.70    6.28
  -1  -8   8    1.20    4.57
   1  -8  -8   14.54    5.02
   1   8   8   -8.31    6.66
   1  -8  -8   15.13    4.89
   1  -8  -8    6.31    6.22
   1   8   8    5.73    6.67
  -1  -8   8   -0.06    5.92
   2  -8   0   59.69    3.34
  -2   8   0   54.64    5.75
   2   8   0   57.15    5.67
  -2   8   1   10.91    4.09
   2  -8   1    6.76    2.20
  -2  -8  -1    3.98    2.25
   2   8  -1    5.10    2.25
  -2  -8  -1    2.53    2.04
   2   8  -1    4.94    3.55
  -2  -8  -1    5.14    2.47
   2  -8  -1    3.48    1.84
   2   8   1    7.42    3.72
   2  -8  -1    6.07    2.33
  -2   8  -1    5.77    4.29
  -2  -8   1    5.83    1.86
  -2  -8   1    9.24    2.26
   2   8   1    4.86    2.82
   2  -8  -1    6.66    2.18
  -2  -8  -2    6.66    2.44
  -2   8   2    8.34    3.42
   2  -8   2    3.83    2.68
  -2  -8  -2   10.39    2.38
  -2  -8  -2    8.53    2.74
   2   8  -2   10.80    3.82
   2   8  -2   10.14    2.70
   2  -8   2    6.17    2.47
   2   8   2   10.35    3.08
   2   8   2    9.54    3.32
   2  -8  -2    5.08    1.98
  -2  -8   2    8.74    2.32
  -2   8  -2    9.70    3.95
   2  -8  -2    8.03    2.62
  -2  -8   2   11.32    2.50
   2  -8  -2    6.65    2.34
   2  -8   3   16.06    3.27
  -2  -8  -3   17.58    3.43
  -2   8   3   16.51    4.15
  -2  -8  -3   17.26    2.85
   2  -8   3   16.70    3.30
   2  -8   3   17.94    3.04
   2   8  -3   19.15    3.58
  -2  -8  -3   17.09    3.15
   2   8  -3   15.42    4.56
   2   8   3   19.09    3.75
   2  -8  -3   18.85    2.72
   2  -8  -3   17.96    3.33
  -2   8  -3   15.98    4.71
   2   8   3   19.81    4.10
  -2  -8   3   17.88    3.10
  -2  -8   3   19.85    2.86
   2  -8  -3   15.98    2.95
   2  -8   4   12.80    3.33
  -2   8   4   13.74    3.95
  -2  -8  -4   11.86    3.72
   2   8  -4   16.01    4.30
  -2   8   4   14.19    4.61
  -2  -8  -4   12.44    3.24
   2   8  -4   10.98    5.48
  -2  -8  -4   10.07    3.96
   2  -8   4   17.68    4.15
   2  -8   4   19.99    3.91
  -2  -8   4   14.65    3.66
   2   8   4   18.03    4.73
   2   8   4   15.62    4.67
  -2   8  -4   15.60    5.30
  -2  -8   4   13.17    4.13
   2  -8  -4   14.04    3.46
  -2  -8   4   13.83    3.22
   2  -8  -4   13.73    3.03
   2  -8  -4   17.29    3.83
  -2  -8  -5    4.26    4.44
  -2   8   5    0.61    4.57
   2  -8   5    1.52    3.45
   2  -8   5    9.97    4.88
  -2   8   5    3.37    4.73
   2   8  -5   -0.40    4.33
  -2  -8  -5    2.79    4.45
  -2  -8  -5   -2.29    4.01
   2  -8   5    3.79    3.88
  -2  -8  -5    0.49    3.36
   2   8  -5    4.59    5.75
   2  -8  -5    6.07    4.15
  -2   8  -5    4.50    5.69
   2  -8  -5    7.39    4.93
   2  -8  -5    0.35    3.15
   2  -8  -5    0.37    3.78
   2   8   5    1.59    4.82
   2   8   5    5.04    5.09
  -2  -8   5    6.23    3.97
  -2  -8   5   -0.97    4.43
  -2  -8   5    2.18    3.32
  -2  -8  -6   13.66    4.67
   2   8  -6    7.79    5.84
   2  -8   6    4.62    3.69
   2  -8   6    3.89    4.09
  -2  -8  -6   10.54    4.92
  -2   8   6    8.27    5.69
  -2  -8  -6   12.13    3.49
  -2   8   6    5.45    5.22
   2  -8   6    6.09    5.03
  -2  -8  -6   10.12    4.99
   2  -8  -6   12.99    4.73
   2  -8  -6    8.79    3.53
  -2  -8   6    6.29    3.32
   2  -8  -6   10.93    4.35
   2   8   6    6.50    5.38
   2  -8  -6    6.82    5.08
   2   8   6    6.97    5.48
  -2  -8   6    4.25    3.99
  -2   8  -6   11.43    5.92
  -2  -8   6    9.12    5.01
  -2  -8  -7    9.98    5.37
  -2  -8  -7    5.65    5.39
   2  -8   7   -1.64    5.68
   2  -8   7    4.71    4.87
   2   8  -7    4.20    6.30
   2  -8   7    6.67    4.26
  -2  -8  -7   14.38    5.23
  -2  -8  -7    9.26    3.58
  -2   8   7   -9.01    5.97
  -2   8   7    3.85    5.86
  -2   8  -7    7.47    6.30
   2  -8  -7   11.31    4.65
  -2  -8   7    1.07    3.60
   2  -8  -7    3.25    4.63
  -2  -8   7    5.17    5.57
   2  -8  -7    2.14    5.35
  -2  -8   7    1.34    4.49
   2   8   7    1.37    5.84
   2  -8  -7    5.13    3.58
   2   8   7   -0.78    6.04
  -2  -8  -8    6.33    3.41
  -2  -8  -8    8.16    5.07
   2  -8   8   -1.68    5.18
  -2  -8  -8   14.96    5.54
   2  -8   8   -6.29    6.29
   2  -8   8   -3.02    4.52
  -2   8   8    2.17    6.71
  -2  -8  -8    3.47    5.74
   2   8  -8    4.49    6.81
   2  -8  -8    4.27    6.04
  -2  -8   8    0.84    6.07
   2  -8  -8   11.57    4.88
   2  -8  -8    5.44    3.54
  -2   8  -8    8.74    6.60
  -2  -8   8   -0.67    3.83
   2   8   8    0.87    6.90
  -2  -8   8   -1.09    5.05
   2   8   8    0.11    6.18
   2  -8  -8   11.18    5.15
   3  -8   0  121.24    3.58
   3   8   0  125.66    5.06
   3   8   0  125.71    6.62
  -3   8   0  118.41    7.00
  -3   8   1  121.21    6.91
   3   8  -1  119.22    4.15
  -3  -8  -1  116.04    4.49
  -3  -8  -1  120.54    4.06
   3   8  -1  123.05    4.99
   3  -8   1  118.23    4.05
   3   8  -1  118.04    6.52
  -3  -8  -1  119.43    5.00
   3   8   1  117.57    6.09
  -3  -8   1  122.21    4.25
  -3   8  -1  117.93    7.43
   3  -8  -1  119.36    4.65
   3  -8  -1  118.94    4.28
   3  -8  -1  117.32    3.71
  -3   8  -1  123.63    4.11
   3   8   1  117.66    5.52
  -3   8   2  106.79    6.31
   3  -8   2  111.37    4.91
  -3  -8  -2  107.75    4.73
   3   8  -2  111.75    6.63
   3   8  -2  111.98    5.13
  -3  -8  -2  112.29    5.29
   3  -8   2  108.55    4.43
  -3  -8  -2  108.65    4.17
   3  -8  -2  107.32    3.86
   3  -8  -2  106.56    4.48
   3   8   2  110.93    5.81
   3  -8  -2  109.36    4.97
  -3   8  -2  105.80    7.05
  -3  -8   2  104.73    4.03
  -3  -8   2  109.43    4.48
   3   8   2  109.53    5.55
  -3  -8  -3   57.22    3.81
  -3   8   3   54.56    5.85
  -3  -8  -3   58.45    5.14
   3   8  -3   58.79    4.89
  -3  -8  -3   61.00    4.53
   3  -8   3   62.21    4.28
   3  -8   3   63.42    4.81
   3   8  -3   58.06    6.31
   3  -8  -3   56.58    3.49
  -3   8  -3   60.20    6.55
  -3  -8   3   57.16    4.33
   3  -8  -3   59.82    4.15
   3   8   3   58.57    5.52
   3  -8  -3   58.63    4.60
   3   8   3   57.10    5.35
  -3  -8   3   57.98    3.89
   3   8  -4   50.77    5.63
   3  -8   4   57.60    5.64
  -3  -8  -4   51.50    5.80
  -3   8   4   55.42    6.43
   3   8  -4   51.67    7.34
   3  -8   4   54.11    4.74
   3  -8   4   52.47    5.45
  -3  -8  -4   44.93    4.13
  -3  -8  -4   46.37    5.20
   3   8   4   61.39    6.09
  -3   8  -4   51.22    7.18
  -3  -8   4   51.47    4.36
   3  -8  -4   55.29    4.88
  -3  -8   4   59.71    5.70
  -3  -8   4   53.08    4.96
   3   8   4   54.82    6.23
   3  -8  -4   57.40    5.33
   3  -8  -4   50.31    3.86
   3  -8   5   35.81    5.71
   3   8  -5   36.52    5.80
   3  -8   5   30.11    5.13
   3   8  -5   35.70    7.28
  -3  -8  -5   29.14    4.06
   3  -8   5   31.11    4.46
  -3  -8  -5   36.44    5.73
  -3  -8  -5   35.76    5.83
  -3   8   5   32.29    6.33
  -3   8   5   33.23    5.41
  -3  -8  -5   32.08    5.24
  -3  -8   5   27.00    4.02
   3  -8  -5   35.48    5.13
  -3  -8   5   32.30    5.73
  -3  -8   5   24.77    4.42
   3  -8  -5   35.29    4.02
   3   8   5   34.74    6.15
   3  -8  -5   29.40    6.07
   3  -8  -5   34.52    4.95
  -3   8  -5   28.80    6.81
   3   8   5   37.77    6.24
   3  -8   6    9.35    4.51
   3  -8   6   16.52    4.09
  -3  -8  -6   18.64    5.52
  -3  -8  -6   17.10    3.67
  -3  -8  -6   22.89    5.32
  -3  -8  -6   18.50    4.95
   3   8  -6   14.09    6.32
   3  -8   6   13.26    5.46
  -3   8   6   11.95    5.42
   3   8  -6   18.24    5.29
  -3   8   6   15.02    5.83
   3  -8  -6   19.96    4.64
   3  -8  -6   19.75    4.87
   3  -8  -6   15.10    5.55
  -3   8  -6   13.15    6.09
  -3  -8   6    7.72    3.35
  -3  -8   6   13.36    4.13
  -3  -8   6   15.05    5.11
   3   8   6   11.34    5.79
   3   8   6   17.84    6.03
   3  -8  -6   18.32    3.66
   3  -8   7   -0.35    4.62
   3  -8   7    0.50    5.96
   3   8  -7    9.69    6.66
  -3  -8  -7   15.27    5.22
  -3  -8  -7    6.11    3.44
  -3  -8  -7    3.01    5.19
  -3   8   7    3.18    6.00
   3  -8   7    2.14    4.22
  -3  -8  -7   15.55    5.72
   3   8   7    3.77    6.37
   3  -8  -7    7.32    4.44
   3  -8  -7    7.48    3.56
  -3  -8   7    3.17    4.71
  -3  -8   7    3.61    3.64
   3   8   7    6.40    6.16
  -3  -8   7   12.74    5.77
  -3   8  -7   11.35    6.28
   3  -8  -7    9.07    5.00
   3  -8  -7    6.17    5.89
  -3  -8  -8   13.31    5.41
  -3  -8  -8   18.11    5.73
  -3  -8  -8   11.80    3.86
   3  -8   8   -7.37    6.16
  -3   8   8    9.27    7.17
  -3  -8  -8    0.52    5.52
   3   8  -8    5.60    6.89
   3  -8   8   -6.46    4.28
   3  -8   8   -2.54    5.43
  -3  -8   8   -2.17    3.87
   3  -8  -8    3.19    4.76
  -3  -8   8   -1.84    5.23
   3  -8  -8   10.25    3.81
   3  -8  -8    2.13    4.37
  -3  -8   8    5.90    6.23
  -3   8  -8    4.44    6.35
   3   8   8   -1.14    7.12
   3   8   8    6.21    6.57
   3  -8  -8   -0.01    6.02
   4   8   0    3.16    2.68
  -4   8   0    3.62    3.95
   4   8   0    3.09    1.73
   4  -8   0    4.99    2.21
   4   8   0    4.00    3.66
   4  -8   1    5.94    2.17
  -4  -8  -1    8.30    2.38
  -4  -8  -1    4.68    2.69
  -4  -8  -1    5.42    2.46
   4   8  -1    6.20    2.73
   4   8  -1    8.35    3.60
   4  -8   1    8.40    2.31
  -4   8   1    6.17    4.15
   4   8  -1    6.83    2.04
   4  -8  -1    7.96    2.37
   4   8   1    7.61    3.41
   4   8   1   10.36    3.49
   4  -8  -1    7.80    1.99
  -4   8  -1    7.03    2.19
  -4   8  -1   11.79    4.92
  -4  -8  -2   16.85    3.30
  -4  -8  -2   16.13    2.77
  -4   8   2   19.59    4.22
  -4  -8  -2   18.27    3.07
   4  -8   2   15.66    2.73
   4  -8   2   17.54    3.33
   4   8  -2   18.97    4.32
   4   8  -2   16.66    3.19
   4   8  -2   16.23    2.68
  -4  -8   2   19.28    2.85
   4  -8  -2   15.24    2.76
   4  -8  -2   16.70    2.27
   4   8   2   17.52    3.66
   4   8   2   16.78    3.71
  -4   8  -2   14.03    4.73
   4  -8  -2   19.39    2.74
   4   8  -3   35.67    6.15
   4  -8   3   43.52    4.10
  -4  -8  -3   43.24    5.12
   4   8  -3   44.83    4.81
  -4   8   3   41.57    5.49
  -4  -8  -3   40.72    4.53
   4  -8   3   43.93    4.86
  -4  -8  -3   37.14    3.71
   4   8   3   46.45    5.13
   4  -8  -3   40.43    4.35
  -4  -8   3   40.85    4.07
  -4  -8   3   41.20    3.53
   4  -8  -3   43.05    3.99
   4  -8  -3   36.88    3.20
  -4   8  -3   36.81    6.39
   4   8   3   42.94    5.63
   4  -8   4   15.52    4.16
   4   8  -4   15.70    5.64
  -4  -8  -4   15.43    3.39
  -4  -8  -4   17.62    3.99
  -4  -8  -4   11.10    4.13
   4  -8   4   14.49    3.54
   4   8  -4   16.41    4.29
  -4   8   4   16.73    4.85
   4  -8   4   16.46    4.31
  -4  -8   4   12.85    4.17
  -4  -8   4   14.36    3.34
   4   8   4   17.97    4.67
   4   8   4   14.60    4.73
   4  -8  -4   16.93    3.75
   4  -8  -4   14.54    3.87
   4  -8  -4   13.83    3.00
  -4  -8   4   11.05    3.43
  -4   8  -4   14.40    5.43
   4  -8   5   14.80    5.07
  -4  -8  -5   19.30    4.95
   4  -8   5    9.03    4.33
  -4  -8  -5   10.50    4.71
  -4   8   5   11.93    5.37
  -4  -8  -5   15.08    5.22
   4   8  -5   12.60    4.92
  -4  -8  -5   10.62    3.59
   4   8  -5    8.62    6.17
   4  -8   5    9.35    3.85
   4  -8  -5   11.97    4.09
   4   8   5   20.00    5.97
  -4  -8   5   12.95    3.94
  -4   8  -5   12.71    6.03
   4  -8  -5   13.00    3.50
   4  -8  -5    7.87    4.41
  -4  -8   5   12.86    5.01
  -4  -8   5   10.53    3.75
   4  -8  -5   12.22    5.43
   4   8   5   15.93    5.26
   4  -8   6    7.29    3.95
  -4  -8  -6   19.67    5.02
   4  -8   6    9.65    4.54
   4   8  -6   15.95    5.15
  -4  -8  -6   13.92    5.11
  -4   8   6   12.49    5.67
  -4  -8  -6   22.11    5.48
  -4   8   6    3.58    4.95
  -4  -8  -6   15.72    3.46
   4  -8   6   17.15    5.57
   4   8  -6   17.53    6.60
   4  -8  -6   14.57    4.69
  -4  -8   6   13.07    5.15
  -4   8  -6   17.54    6.34
   4  -8  -6   12.45    4.31
   4  -8  -6   15.29    3.54
   4   8   6   13.27    5.87
   4  -8  -6    9.23    5.57
   4   8   6   14.87    5.66
  -4  -8   6   12.86    4.33
  -4  -8   6    7.87    3.46
  -4  -8  -7   16.69    5.35
   4  -8   7    7.66    4.44
   4  -8   7    5.56    5.99
   4  -8   7    1.31    4.82
  -4  -8  -7   11.65    5.62
  -4   8   7   10.28    6.48
  -4  -8  -7    3.95    5.11
  -4  -8  -7   12.10    3.83
   4   8  -7   11.30    6.81
  -4   8   7   -1.24    6.11
   4  -8  -7   11.13    4.90
   4   8   7    5.05    6.64
  -4  -8   7    3.55    3.59
  -4  -8   7    0.97    5.29
   4  -8  -7   17.77    4.92
  -4  -8   7    7.68    4.72
   4  -8  -7   13.93    6.39
   4  -8  -7    8.36    3.53
   4   8   7    8.87    6.15
  -4   8  -7   12.84    6.67
  -4  -8  -8   11.96    3.80
  -4  -8  -8    5.38    5.56
   4  -8   8   -4.48    4.48
  -4   8   8    9.80    6.84
  -4  -8  -8   18.82    5.93
   4   8  -8    5.63    7.04
   4  -8   8   -3.15    6.84
   4  -8   8   -5.26    5.53
  -4  -8  -8   20.54    5.39
  -4  -8   8   11.77    6.58
   4  -8  -8   11.78    4.60
  -4  -8   8   -3.13    5.33
  -4  -8   8   -2.97    3.64
   4  -8  -8   13.50    5.15
   4   8   8   10.17    6.85
  -4   8  -8    6.11    6.34
   4   8   8    2.02    7.23
   4  -8  -8    2.01    6.05
   4  -8  -8   10.68    3.73
   5  -8   0   87.68    4.23
  -5   8   0   87.05    4.17
   5   8   0   76.82    4.95
  -5   8   0   84.49    6.78
   5   8   0   75.44    3.20
   5   8  -1   48.56    3.26
   5   8  -1   40.66    4.28
  -5  -8  -1   41.23    3.30
   5  -8   1   46.54    3.56
  -5  -8  -1   44.62    4.23
  -5  -8  -1   42.70    3.82
   5  -8   1   44.45    3.16
  -5   8   1   46.87    6.03
   5   8  -1   46.61    4.89
  -5   8  -1   47.29    6.70
   5  -8  -1   45.16    3.80
   5   8   1   44.42    2.97
   5   8   1   45.06    2.53
  -5   8  -1   43.49    3.39
   5   8   1   45.80    5.09
   5  -8  -1   45.61    2.88
   5   8  -2   22.30    3.04
  -5  -8  -2   23.29    3.34
   5   8  -2   23.53    3.64
   5   8  -2   25.03    4.61
   5  -8   2   26.14    3.53
  -5  -8  -2   25.69    3.04
   5  -8   2   23.99    3.08
  -5   8   2   24.12    4.68
  -5  -8  -2   22.25    3.74
   5  -8  -2   24.65    2.67
  -5  -8   2   24.77    3.25
  -5   8  -2   29.31    3.44
  -5   8  -2   21.65    5.28
   5   8   2   26.50    4.22
   5  -8  -2   26.01    3.36
  -5   8   3   22.40    4.87
  -5  -8  -3   26.76    4.31
   5   8  -3   22.11    4.06
   5   8  -3   28.31    5.51
  -5  -8  -3   22.56    3.79
  -5  -8  -3   26.58    3.44
   5  -8   3   23.89    3.47
   5  -8   3   22.03    3.95
  -5  -8   3   24.65    3.17
   5   8   3   25.29    4.28
   5  -8  -3   23.21    3.58
  -5  -8   3   19.25    3.32
  -5   8  -3   23.81    5.71
   5   8   3   22.71    4.86
   5  -8  -3   23.82    2.85
   5  -8  -3   22.46    3.37
  -5  -8  -4   21.04    3.62
   5   8  -4   20.48    4.52
   5   8  -4   24.02    6.13
  -5  -8  -4   20.44    4.34
  -5   8   4   18.84    5.12
   5  -8   4   24.14    4.29
  -5  -8  -4   22.61    5.02
   5  -8   4   20.15    3.76
   5   8   4   21.32    4.72
   5  -8  -4   22.66    3.95
  -5   8  -4   22.11    6.11
   5  -8  -4   23.38    3.35
   5   8   4   24.41    5.32
  -5  -8   4   18.31    3.67
   5  -8  -4   18.05    3.96
  -5  -8   4   18.53    3.35
  -5   8   5    3.70    5.00
   5  -8   5    5.12    4.01
   5  -8   5    5.19    3.59
   5  -8   5    6.59    4.92
  -5  -8  -5    8.50    5.20
   5   8  -5    8.43    4.77
   5   8  -5    8.86    6.21
  -5  -8  -5    9.00    4.60
  -5  -8  -5    6.39    3.54
  -5  -8  -5    4.44    4.48
  -5  -8   5   11.37    4.04
   5  -8  -5   14.38    4.23
  -5  -8   5   15.05    4.68
   5   8   5    6.71    5.28
  -5   8  -5    2.57    5.70
   5  -8  -5    7.10    4.30
  -5  -8   5    8.36    3.29
   5  -8  -5    7.75    3.18
   5   8   5    7.38    4.96
   5  -8   6   -5.72    3.82
  -5  -8  -6   -0.78    4.37
  -5  -8  -6   12.90    3.58
   5  -8   6    0.43    5.12
  -5  -8  -6    6.68    5.09
   5  -8   6   -2.26    3.41
  -5  -8  -6   12.42    4.96
   5   8  -6    7.36    6.06
   5   8  -6    6.06    4.53
  -5   8   6    3.75    5.02
   5   8   6   -0.18    5.01
  -5  -8   6    0.30    3.92
  -5  -8   6    1.68    3.18
   5   8   6    2.43    5.62
   5  -8  -6    2.34    3.09
   5  -8  -6    5.14    4.03
   5  -8  -6    3.38    5.34
   5  -8  -6    5.04    4.17
  -5  -8   6    4.29    4.61
  -5   8  -6    6.22    5.41
   5   8  -7    3.38    5.34
  -5  -8  -7   12.47    5.94
   5  -8   7   -5.10    4.54
  -5   8   7    7.15    5.94
  -5  -8  -7    0.10    4.92
   5  -8   7   -8.06    5.76
   5   8  -7    5.72    6.83
  -5  -8  -7   11.71    5.40
   5  -8   7    4.36    4.44
  -5  -8  -7   10.34    3.66
   5  -8  -7    8.56    3.50
  -5  -8   7    0.43    3.62
   5  -8  -7    2.04    5.76
   5   8   7   -3.14    6.35
  -5  -8   7    5.65    5.60
   5   8   7    4.06    5.72
   5  -8  -7    5.38    4.58
   5  -8  -7    4.37    4.25
  -5   8  -7    4.45    5.96
  -5  -8   7    4.03    4.68
  -5  -8  -8    0.87    5.31
  -5  -8  -8   10.81    5.37
   5  -8   8  -10.92    5.25
  -5   8   8    3.13    6.65
  -5  -8  -8   10.29    3.82
   5   8  -8   -0.01    6.91
  -5  -8  -8    7.05    5.70
   5  -8   8   -3.03    4.47
   5   8   8   -8.09    7.06
  -5   8  -8    5.51    6.05
   5  -8  -8    6.76    4.51
  -5  -8   8   -5.47    3.52
  -5  -8   8   -6.07    5.26
   5   8   8   -0.21    6.11
  -5  -8   8   -2.59    5.66
   5  -8  -8   -3.43    6.11
   5  -8  -8    3.25    3.31
   5  -8  -8    8.81    4.94
   6   8   0   17.09    2.50
   6  -8   0   17.01    2.88
   6   8   0   12.10    3.39
   6   8   0   18.13    2.28
  -6   8   0   13.83    2.80
  -6   8   0   17.84    4.98
  -6  -8  -1    5.45    2.68
  -6  -8  -1    4.44    3.09
   6  -8   1    8.10    2.73
   6   8  -1    7.02    2.36
   6   8  -1    6.16    3.17
   6  -8   1    3.36    2.40
  -6  -8  -1    4.15    2.86
  -6   8   1    9.18    4.68
   6   8   1    7.88    2.18
   6  -8  -1    9.11    2.74
  -6   8  -1    7.49    2.61
  -6   8  -1    9.21    5.36
   6   8   1    5.52    1.90
   6   8   1    6.86    3.71
   6   8  -2   12.26    4.19
  -6  -8  -2   12.16    3.71
  -6   8   2   10.46    4.36
   6   8  -2    5.20    3.15
   6  -8   2   12.34    2.89
   6   8  -2    6.92    2.67
  -6  -8  -2    6.37    3.21
  -6  -8  -2   10.68    3.03
   6  -8   2   11.04    3.53
   6   8   2   10.39    4.27
   6  -8  -2    8.11    2.29
   6   8   2   13.45    2.54
  -6   8  -2    9.60    5.10
  -6   8  -2   12.74    3.00
   6  -8  -2    9.45    2.98
   6  -8   3   33.78    4.43
  -6   8   3   28.82    5.22
  -6  -8  -3   22.72    4.10
   6   8  -3   26.91    3.80
  -6  -8  -3   26.84    3.69
  -6  -8  -3   28.25    4.80
   6  -8   3   28.19    3.67
   6   8  -3   31.17    5.65
   6   8  -3   23.04    4.31
   6  -8  -3   28.12    4.02
  -6  -8   3   27.92    3.79
   6  -8  -3   30.03    3.17
  -6   8  -3   24.47    6.07
   6   8   3   29.47    5.22
  -6   8   4   13.68    5.11
  -6  -8  -4   15.13    4.32
  -6  -8  -4   10.28    4.88
  -6  -8  -4   13.15    3.60
   6   8  -4   17.23    6.08
   6   8  -4   15.08    4.55
   6  -8   4   17.15    3.69
   6  -8   4   18.06    4.40
  -6   8  -4   15.98    6.08
   6   8   4   11.44    4.30
  -6  -8   4   11.10    3.07
   6   8   4   13.08    5.15
   6  -8  -4   15.43    4.03
  -6  -8   4   13.16    3.52
   6  -8  -4   14.80    3.08
   6  -8  -4   14.09    3.76
  -6   8   5   30.10    6.16
  -6  -8  -5   30.27    5.90
  -6  -8  -5   27.78    5.39
   6   8  -5   32.16    5.46
   6  -8   5   25.43    5.52
   6   8  -5   31.74    7.15
  -6  -8  -5   20.46    3.88
   6  -8   5   20.70    4.59
   6  -8   5   22.57    4.10
  -6  -8  -5   24.48    5.02
  -6  -8   5   24.36    5.22
   6   8   5   34.55    5.76
  -6   8  -5   24.64    6.74
   6  -8  -5   29.17    4.94
  -6  -8   5   22.57    3.76
  -6  -8   5   25.40    4.43
   6  -8  -5   28.94    3.77
   6   8   5   24.50    5.93
   6  -8  -5   32.81    4.59
   6  -8   6   17.27    5.85
  -6  -8  -6   30.21    6.18
  -6  -8  -6   22.42    4.00
  -6  -8  -6   21.74    5.48
  -6  -8  -6   21.94    5.34
   6   8  -6   24.96    7.04
   6   8  -6   29.73    5.77
  -6   8   6   16.77    5.41
  -6   8   6   21.84    6.16
   6  -8   6   14.00    4.55
   6  -8   6   17.09    4.19
  -6  -8   6   21.05    5.41
   6   8   6   21.45    6.21
  -6  -8   6   19.93    3.82
  -6  -8   6   20.38    4.65
   6  -8  -6   27.95    4.70
  -6   8  -6   30.66    7.06
   6  -8  -6   27.16    3.83
   6   8   6   26.31    6.22
   6  -8  -6   27.20    5.09
   6  -8  -6   20.12    6.38
  -6   8   7   14.73    6.67
   6  -8   7    9.99    4.37
  -6  -8  -7   26.43    6.13
   6  -8   7    6.97    6.63
   6   8  -7   12.76    5.85
  -6   8   7   10.40    6.27
  -6  -8  -7   23.52    6.38
   6   8  -7   21.58    7.59
  -6  -8  -7   10.65    5.40
   6  -8   7    4.67    4.89
  -6  -8  -7   17.11    4.05
  -6  -8   7   16.13    6.16
  -6  -8   7   18.29    5.36
   6  -8  -7   22.02    5.09
   6   8   7   14.64    7.11
   6   8   7   15.16    6.43
   6  -8  -7   18.76    4.71
  -6   8  -7   17.17    6.93
   6  -8  -7   14.74    6.68
  -6  -8   7    7.39    3.85
   6  -8  -7   17.97    3.84
  -6   8   8    9.61    6.92
   6  -8   8    7.40    5.06
  -6  -8  -8    6.95    5.64
  -6   8   8  -11.37    7.58
   6  -8   8   -3.73    7.28
   6   8  -8   13.71    7.57
  -6  -8  -8   16.45    4.05
   6  -8   8    4.26    5.91
  -6  -8   8   12.10    6.51
  -6  -8   8    4.90    5.68
   6  -8  -8   14.31    5.18
   6  -8  -8   16.99    3.99
   6  -8  -8    5.38    6.54
  -6   8  -8   20.44    7.39
   6   8   8    7.96    7.81
   6  -8  -8   22.11    5.12
  -6  -8   8    2.90    3.94
   6   8   8   11.69    7.08
   7   8   0    2.60    3.11
  -7   8   0    4.92    4.90
   7  -8   0    0.62    2.78
   7   8   0    0.89    2.00
   7   8   0    1.18    2.21
  -7   8   0    0.76    2.54
  -7  -8  -1    7.92    3.50
  -7  -8  -1    6.48    2.93
   7  -8   1    9.25    2.68
  -7   8   1    8.41    5.11
  -7   8   1    6.75    2.73
   7   8  -1    6.07    3.43
   7   8  -1    5.04    2.63
  -7  -8  -1    6.89    3.12
   7   8   1    4.96    2.42
  -7   8  -1   11.05    5.68
   7  -8  -1    5.85    2.80
   7   8   1    5.94    4.09
   7   8   1    5.87    2.13
  -7   8  -1    9.98    3.03
   7   8  -2    4.35    2.99
  -7  -8  -2    8.62    3.50
   7  -8   2    8.40    3.64
  -7  -8  -2    3.11    3.75
  -7   8   2    4.34    4.52
  -7  -8  -2    6.98    3.10
   7   8  -2    3.98    3.45
   7  -8   2    8.53    3.11
   7   8   2    8.53    4.51
  -7   8  -2    7.42    3.15
   7   8   2    7.30    2.71
  -7   8  -2    2.98    5.61
   7  -8  -2    4.98    3.10
   7   8   2    7.61    2.19
  -7  -8  -3    8.38    3.99
   7  -8   3    8.12    3.43
  -7   8   3   10.56    4.84
  -7  -8  -3   10.39    3.47
   7   8  -3    1.06    3.41
   7  -8   3   10.89    4.12
   7   8  -3    9.42    3.83
   7   8  -3   11.73    5.12
  -7  -8  -3    5.67    4.39
  -7  -8   3   10.37    3.47
   7   8   3    5.96    2.83
  -7   8  -3   11.46    3.65
   7  -8  -3    7.50    2.65
   7   8   3   10.72    4.61
   7  -8  -3    7.42    3.48
  -7   8  -3    3.20    5.37
  -7  -8  -4    1.82    4.95
   7  -8   4    1.95    3.50
   7   8  -4    5.31    5.62
   7  -8   4   -0.27    4.17
   7   8  -4    3.52    4.10
  -7  -8  -4   -0.34    3.34
  -7  -8  -4    8.51    4.53
  -7   8   4    2.77    5.07
  -7  -8   4   -2.26    2.88
   7  -8  -4    4.82    3.84
   7  -8  -4    1.55    2.89
  -7  -8   4    2.89    3.37
   7   8   4    3.87    3.20
   7   8   4    5.27    5.29
  -7   8  -4    2.28    5.85
   7   8  -5    1.08    4.02
  -7  -8  -5    9.05    4.73
  -7  -8  -5    0.44    3.21
  -7   8   5   -1.33    4.57
   7  -8   5   -1.37    3.94
  -7  -8  -5    2.79    5.14
  -7  -8  -5    2.69    3.89
   7   8  -5    3.44    5.62
   7  -8   5   -1.39    4.65
   7  -8   5    1.53    3.32
   7  -8  -5    6.28    3.71
   7  -8  -5    1.31    3.88
   7   8   5   -0.13    5.00
  -7   8  -5    4.43    5.55
  -7  -8   5   -0.08    2.85
  -7  -8   5    1.55    3.33
  -7  -8   5    2.57    4.06
   7  -8  -5    1.58    2.94
   7   8   5    1.81    4.12
  -7  -8  -6    6.21    3.65
   7   8  -6    7.22    5.01
  -7  -8  -6    7.67    5.25
   7  -8   6   -4.30    4.08
  -7  -8  -6   -3.38    4.12
  -7   8   6   -1.91    4.98
  -7  -8  -6    9.45    5.59
   7  -8   6   -0.48    3.63
   7   8  -6    6.24    6.46
   7  -8  -6    7.63    3.97
  -7  -8   6    2.55    4.99
  -7  -8   6    0.96    3.07
   7  -8  -6    4.94    4.22
   7  -8  -6    3.98    3.26
   7   8   6    0.23    4.80
  -7  -8   6    3.74    3.79
  -7   8  -6    5.44    5.61
   7   8   6   -3.38    5.53
   7   8  -7    7.08    6.65
  -7  -8  -7    1.44    3.59
  -7  -8  -7    8.13    5.92
   7  -8   7    0.69    4.85
  -7   8   7    1.86    5.81
  -7  -8  -7   -1.28    4.63
  -7  -8  -7   15.13    5.58
   7   8  -7    0.63    5.09
   7  -8   7  -13.36    6.13
   7  -8   7    2.26    4.06
   7   8   7    0.80    5.50
   7  -8  -7    3.77    6.33
   7   8   7    2.09    6.62
   7  -8  -7    5.02    4.18
  -7  -8   7    0.15    4.68
  -7   8  -7    3.98    6.07
   7  -8  -7    1.65    3.32
   7  -8  -7    2.61    4.48
  -7  -8   7   -4.46    3.30
  -7  -8   7    2.73    5.44
   8  -8   0    7.93    3.10
  -8   8   0    4.88    2.78
   8   8   0    2.48    2.59
  -8   8   0    5.18    5.59
   8   8   0    1.37    3.43
   8   8   0    3.18    2.28
  -8  -8  -1    7.28    3.31
   8   8  -1    0.42    3.55
   8   8  -1    3.40    2.82
  -8  -8  -1    2.75    3.92
  -8   8   1    9.83    5.66
  -8  -8  -1    2.26    3.36
  -8   8   1    4.28    2.90
   8   8  -1    4.94    2.69
   8  -8   1    0.07    2.52
   8   8   1    4.04    2.72
  -8   8  -1    6.03    3.17
  -8   8  -1    7.42    6.22
   8  -8  -1    5.05    3.14
   8   8   1    3.32    3.75
   8   8   1    2.74    2.30
  -8  -8  -2    2.76    3.70
   8   8  -2    8.88    3.22
  -8  -8  -2    0.33    3.47
  -8  -8  -2    2.64    4.28
  -8   8   2    8.90    5.15
  -8   8   2    7.39    3.25
   8  -8   2   -0.49    3.10
   8  -8   2    5.18    3.75
   8   8  -2    2.32    3.52
   8   8   2    4.97    2.90
  -8   8  -2    3.09    5.82
   8   8   2    5.78    4.77
   8  -8  -2   10.32    3.59
  -8   8  -2    6.15    3.43
   8   8   2    6.19    2.41
  -8  -8  -3    1.91    4.06
  -8  -8  -3    3.98    3.58
   8   8  -3    3.98    4.90
   8   8  -3    2.18    3.62
  -8  -8  -3   -1.00    4.70
   8   8  -3    5.92    3.60
   8  -8   3    4.46    3.56
   8  -8   3    3.85    4.17
  -8   8   3    3.27    4.97
   8   8   3    8.27    4.95
   8  -8  -3    0.50    3.56
  -8   8  -3    2.60    5.65
  -8   8  -3    5.43    3.77
   8   8   3   -0.99    2.94
   8   8   3    1.97    2.42
  -8  -8  -4   38.96    5.84
   8   8  -4   36.94    4.98
   8  -8   4   36.16    4.69
   8   8  -4   41.92    7.13
   8   8  -4   32.29    5.43
   8  -8   4   37.48    5.15
  -8  -8  -4   38.40    6.28
  -8   8   4   36.16    6.74
  -8  -8  -4   27.15    4.39
  -8   8  -4   37.42    7.41
   8  -8  -4   36.91    3.93
  -8  -8   4   31.75    4.50
   8  -8  -4   36.78    5.02
   8   8   4   36.83    3.50
   8   8   4   29.56    6.17
   8   8   4   37.16    4.51
  -8   8  -4   39.02    5.10
   8   8  -5   37.30    7.32
   8   8  -5   28.35    5.33
  -8  -8  -5   29.19    4.21
  -8  -8  -5   39.39    6.48
  -8  -8  -5   44.43    6.23
  -8   8   5   27.51    6.24
   8  -8   5   23.32    4.82
   8  -8   5   25.25    4.57
   8  -8  -5   31.70    3.98
  -8  -8   5   30.90    5.52
   8  -8  -5   36.45    5.09
  -8  -8   5   24.13    4.18
  -8  -8   5   26.56    3.65
   8   8   5   26.54    6.09
  -8   8  -5   41.45    7.42
   8   8   5   28.81    3.91
  -8  -8  -6    8.42    5.16
   8  -8   6   18.07    4.61
  -8  -8  -6   20.86    6.39
   8  -8   6   -1.21    5.76
   8  -8   6    9.55    4.81
  -8  -8  -6   12.77    5.76
  -8  -8  -6    9.46    3.79
  -8   8   6   12.13    6.05
   8   8  -6   18.28    6.94
   8   8  -6   14.69    5.56
   8  -8  -6   14.47    3.77
   8   8   6   12.13    5.18
   8   8   6   18.39    3.83
  -8   8  -6   19.95    6.60
   8   8   6   15.09    6.60
  -8  -8   6   10.12    3.55
   8  -8  -6    9.66    4.49
  -8  -8   6   10.14    4.47
  -8  -8   6    8.02    5.24
  -8   8   7   14.70    6.57
  -8  -8  -7   22.09    6.62
  -8  -8  -7   16.22    4.17
  -8  -8  -7   19.54    6.11
   8  -8   7   11.31    5.48
   8   8  -7    9.80    5.64
   8  -8   7   -8.84    6.48
   8   8  -7   10.16    6.87
   8  -8   7    9.24    4.76
  -8  -8   7    8.66    3.90
   8  -8  -7    8.24    6.93
  -8  -8   7    8.11    4.95
   8   8   7    9.94    7.00
  -8  -8   7   11.95    5.92
   8  -8  -7   12.60    4.82
  -8   8  -7   18.85    6.95
   8  -8  -7   19.43    4.02
   8   8   7   15.39    4.29
  -9   8   0   15.07    6.58
  -9  -8   0   10.57    4.20
  -9   8   0    7.82    3.41
   9   8   0   11.20    4.08
   9   8   0   15.23    2.80
   9  -8   0   11.53    3.73
   9   8   0    7.79    3.09
   9  -8   0   14.84    2.75
  -9  -8  -1   15.24    4.60
   9   8  -1   14.08    3.35
  -9   8   1   15.49    5.96
   9   8  -1   11.07    2.91
  -9  -8  -1   15.26    3.92
   9  -8   1   12.06    3.10
  -9  -8  -1   15.30    4.05
   9   8  -1   12.67    4.23
  -9   8   1    9.59    3.48
  -9   8  -1   14.70    6.60
   9   8   1    9.97    2.76
   9  -8  -1   10.23    3.75
   9   8   1    4.01    3.89
  -9   8  -1   13.97    3.74
   9   8   1   12.69    3.24
  -9   8   2    4.84    5.31
   9  -8   2    5.23    3.28
  -9   8   2    5.41    3.25
   9  -8   2    5.90    3.97
  -9  -8  -2    3.56    4.70
   9   8  -2    1.35    3.57
  -9  -8  -2    0.78    3.89
   9   8  -2    5.90    3.42
  -9  -8  -2    5.33    3.73
  -9   8  -2    3.82    6.20
   9   8   2    2.91    5.02
   9   8   2    3.60    2.56
   9   8   2    5.82    3.06
  -9   8  -2    3.85    3.65
   9  -8  -2    3.94    3.49
  -9   8   3    2.29    5.38
   9  -8   3    4.61    4.18
   9   8  -3    4.51    3.61
   9  -8   3   10.73    3.81
   9   8  -3    3.21    3.88
  -9  -8  -3    2.43    3.78
  -9  -8  -3    0.51    4.35
  -9  -8  -3    3.60    5.18
   9  -8  -3    4.25    3.98
   9   8   3    4.46    5.15
   9   8   3    4.37    2.66
  -9   8  -3    5.18    6.12
  -9   8  -3    7.81    4.17
   9   8   3    5.81    3.35
   9   8  -4    9.93    4.12
  -9  -8  -4   10.63    5.60
   9  -8   4    3.31    4.12
   9   8  -4    4.83    4.23
  -9  -8  -4    8.66    4.98
   9  -8   4    3.85    3.81
  -9  -8  -4    8.43    3.86
  -9   8   4    6.56    5.31
   9   8  -4    7.58    5.29
   9   8   4    6.68    2.65
   9   8   4    6.92    3.37
  -9  -8   4    9.63    3.58
  -9   8  -4    8.27    5.94
   9   8   4    3.60    5.27
  -9   8  -4    0.63    4.18
   9  -8  -4    4.10    4.12
  -9   8   5    7.12    5.55
   9  -8   5    9.10    4.42
  -9  -8  -5   22.50    5.77
  -9  -8  -5   10.08    5.59
  -9  -8  -5   11.76    3.92
   9   8  -5   10.81    6.06
   9   8  -5    9.76    4.82
   9  -8   5    6.08    3.91
   9   8   5    2.76    5.57
   9  -8  -5   11.36    3.42
  -9   8  -5    8.92    4.56
  -9  -8   5   11.12    3.00
  -9  -8   5    7.03    4.45
   9   8   5    8.04    2.76
  -9   8  -5   14.40    6.14
   9   8   5   14.03    3.55
   9  -8  -5    9.39    4.41
  -9  -8   5    3.25    3.98
   9   8  -6    6.08    5.34
  -9   8   6    3.19    5.67
  -9  -8  -6   12.29    4.01
  -9  -8  -6    8.66    6.26
   9   8  -6   10.68    6.60
   9  -8   6    3.17    4.55
   9  -8   6    2.53    4.08
  -9  -8  -6    6.65    5.73
   9  -8  -6    7.54    4.55
   9   8   6    1.05    6.09
  -9  -8   6    4.43    4.84
  -9   8  -6   16.24    6.19
  -9  -8   6   -0.46    3.23
   9  -8  -6    8.83    3.68
  -9  -8   6    5.63    4.58
   9   8   6    6.82    3.70
   9   8  -7   -1.73    6.01
  -9  -8  -7   11.57    6.07
   9   8  -7    6.03    5.67
  -9   8   7   -3.10    5.78
   9  -8   7   -3.45    4.67
  -9  -8  -7    6.72    3.84
  -9  -8  -7    2.21    6.01
   9  -8   7   -2.60    4.12
   9   8   7   -9.18    6.39
   9  -8  -7    2.82    3.58
  -9   8  -7    8.09    6.19
  -9  -8   7   -2.36    5.35
  -9  -8   7    5.61    4.87
  -9  -8   7    1.35    3.48
   9  -8  -7    1.33    4.38
   9   8   7    0.20    3.58
  10  -8   0    4.50    2.82
  10   8   0    0.88    3.14
  10  -8   0    6.20    3.87
  10   8   0    4.96    2.90
 -10   8   0    9.30    6.74
 -10  -8   0    1.26    4.43
  10   8   0    2.86    4.16
 -10   8   0    3.35    3.54
 -10  -8  -1    5.44    4.87
 -10   8   1    2.90    5.81
 -10  -8  -1    2.54    4.15
 -10   8   1    8.84    3.40
  10   8  -1    6.09    4.22
  10   8  -1    4.14    3.42
  10   8  -1    4.29    2.97
  10  -8   1    3.72    3.59
 -10  -8  -1    6.35    3.95
  10  -8   1    4.38    2.98
  10   8   1    7.34    3.36
  10   8   1    2.07    3.96
 -10   8  -1    1.17    3.60
  10   8   1    1.78    2.67
 -10   8  -1    4.77    6.57
  10  -8  -1    4.96    3.77
 -10  -8  -2    4.47    5.18
  10  -8   2    3.47    4.18
  10   8  -2    6.86    3.67
 -10   8   2    7.25    5.75
 -10  -8  -2    7.21    4.44
 -10  -8  -2    8.26    4.18
 -10   8   2    3.46    3.53
  10   8  -2    6.93    4.21
  10  -8   2    7.48    3.47
  10   8   2    6.05    3.40
  10   8   2    7.43    5.18
 -10   8  -2   10.57    4.19
  10  -8  -2    4.70    3.91
 -10   8  -2    4.40    6.40
  10   8   2    7.80    2.89
 -10  -8  -3    6.15    4.93
  10  -8   3    7.61    4.60
  10   8  -3    9.14    4.09
 -10  -8  -3    8.28    4.14
 -10   8   3    4.68    3.76
 -10  -8  -3   11.87    5.60
  10   8  -3    2.02    4.10
  10  -8   3    9.36    3.89
 -10   8   3    7.23    5.68
  10   8   3    3.72    3.52
 -10   8  -3    6.66    6.16
  10  -8  -3    7.34    4.32
 -10   8  -3    5.10    4.27
  10   8   3    5.12    2.77
  10   8   3    9.20    5.47
  10   8  -4   15.44    5.52
 -10  -8  -4   13.61    5.29
  10   8  -4   12.96    4.44
 -10   8   4    6.84    5.36
 -10   8   4   12.77    4.38
  10   8  -4   11.94    4.49
 -10  -8  -4    9.53    5.48
  10  -8   4   12.22    4.34
 -10  -8  -4    7.48    3.69
  10  -8   4    9.69    3.95
 -10   8  -4   15.68    5.99
 -10  -8   4   11.72    3.72
  10   8   4   11.87    5.52
  10   8   4   13.12    3.55
  10  -8  -4   14.91    4.58
 -10   8  -4    8.45    4.47
  10   8   4   16.13    3.04
 -10   8   5   10.35    6.01
  10  -8   5    8.63    4.16
  10   8  -5   16.10    6.29
 -10  -8  -5   29.39    6.44
 -10  -8  -5   14.80    4.22
  10   8  -5   17.87    5.26
 -10  -8  -5   22.74    6.33
  10  -8   5    5.35    4.49
  10   8   5    8.76    5.83
 -10  -8   5   10.44    3.11
 -10   8  -5   23.66    6.40
 -10   8  -5    9.70    4.81
  10  -8  -5    9.98    4.59
 -10   8  -5   12.01    4.07
  10   8   5   15.22    3.05
  10   8   5   15.90    3.80
 -10  -8   5    6.04    3.89
  10  -8   6   -7.93    5.99
 -10  -8  -6    4.35    6.47
  10  -8   6    6.62    4.43
  10  -8   6    2.85    4.65
  10   8  -6   12.43    6.39
 -10  -8  -6   20.55    6.53
 -10   8   6    6.98    6.14
 -10  -8  -6   10.82    4.18
  10   8  -6   10.49    5.58
 -10   8  -6   14.52    6.04
 -10  -8   6    7.79    4.64
  10   8   6   12.11    3.22
 -10  -8   6    5.78    4.98
  10   8   6    9.81    3.91
 -10  -8   6   13.16    3.55
  10  -8  -6    2.36    4.43
 -10   8  -6    5.74    4.94
  10   8   6    2.54    6.39
 -10   8   7    1.50    6.16
  10   8  -7   11.23    6.80
 -10  -8  -7   15.42    6.71
  10  -8   7    1.97    5.08
 -10  -8  -7   21.69    6.76
 -10  -8  -7   11.51    4.22
  10   8  -7   11.95    6.06
  10  -8   7    6.16    4.80
 -10  -8   7    7.27    3.64
 -10  -8   7    9.44    6.14
  10   8   7   -6.89    6.92
  10   8   7    6.05    4.19
  10  -8  -7    3.90    4.71
 -10   8  -7   12.33    6.52
 -10  -8   7    0.75    4.79
  11   8   0   25.39    4.16
 -11  -8   0   30.23    5.53
  11   8   0   19.19    5.00
 -11   8   0   17.43    4.20
  11   8   0   19.55    3.40
 -11   8   0   25.57    7.62
  11  -8   0   25.96    3.44
  11   8  -1   17.27    3.48
 -11  -8  -1   14.99    5.48
 -11   8   1   13.98    4.05
  11   8  -1   14.97    5.00
  11  -8   1   24.53    3.60
 -11  -8  -1   19.30    4.80
 -11  -8  -1   23.08    4.55
  11   8  -1   16.21    3.93
 -11   8   1   14.75    6.76
 -11   8  -1   13.59    4.19
  11   8   1    8.63    4.70
 -11   8  -1   19.04    7.33
  11   8   1   10.89    3.74
  11  -8  -1   16.48    4.57
  11   8   1   20.08    3.40
  11  -8   2   18.82    3.90
  11   8  -2   21.33    4.88
  11  -8   2   26.57    4.53
 -11  -8  -2   24.40    4.84
 -11  -8  -2   18.56    5.20
 -11   8   2   25.15    6.85
 -11   8   2   18.14    4.35
  11   8  -2   18.87    4.27
 -11  -8  -2   24.75    6.11
  11   8   2   23.94    3.89
  11   8   2   27.13    6.19
 -11   8  -2   24.29    4.92
 -11   8  -2   25.75    7.00
  11  -8  -2   26.45    5.09
  11   8   2   24.47    3.45
 -11   8   3   11.19    5.82
 -11  -8  -3   22.20    6.09
 -11   8   3   14.55    4.15
 -11  -8  -3   15.44    5.08
 -11  -8  -3   19.12    4.44
  11  -8   3   11.98    4.48
  11   8  -3   18.08    4.60
  11   8  -3   14.44    4.24
  11  -8   3   12.26    3.76
 -11   8  -3   18.29    4.60
  11   8   3   18.50    3.17
  11  -8  -3   13.57    4.53
  11   8   3   21.87    3.94
 -11   8  -3   26.28    6.50
  11   8   3   14.63    5.66
 -11   8   4    5.76    5.62
  11  -8   4   10.30    3.94
  11   8  -4    7.57    4.68
 -11  -8  -4    9.06    4.08
  11   8  -4   11.54    4.78
 -11  -8  -4   13.63    5.51
  11  -8   4   10.13    4.82
 -11   8   4    6.61    4.23
 -11  -8  -4   17.86    5.87
  11   8   4   11.79    2.99
  11  -8  -4   11.84    4.66
  11   8   4   14.90    3.69
  11   8   4    5.86    5.35
 -11   8  -4   17.06    5.73
 -11   8  -4    4.37    4.64
 -11  -8   4   11.85    3.95
 -11  -8  -5   19.02    6.50
  11  -8   5    8.75    4.29
 -11  -8  -5    8.96    6.22
  11   8  -5    9.28    5.10
 -11  -8  -5    9.99    4.20
 -11   8   5   12.53    4.93
  11   8  -5   12.11    6.11
  11  -8   5    8.63    5.39
 -11   8   5    4.74    5.88
  11  -8  -5    4.82    4.76
  11   8   5    4.28    6.03
 -11  -8   5    9.02    4.25
 -11   8  -5   -0.45    4.73
 -11   8  -5    9.87    5.57
  11   8   5    9.79    3.74
 -11   8  -5    3.50    3.99
  11   8   5    7.95    3.05
 -11   8   6    2.92    6.22
  11   8  -6    6.90    6.23
  11  -8   6    2.48    4.69
 -11  -8  -6   14.50    6.66
 -11  -8  -6   15.44    6.92
  11  -8   6    4.24    4.46
 -11  -8  -6    9.80    4.48
  11   8  -6    6.63    5.48
 -11   8  -6   17.07    6.32
 -11  -8   6    7.22    5.27
 -11  -8   6    2.92    3.16
  11   8   6   -5.60    6.22
  11   8   6   10.40    4.08
 -11   8  -6    1.17    5.03
  11  -8  -6    5.62    4.80
  11   8   6   12.07    3.15
 -11  -8   6    3.62    4.51
  12   8   0   -0.53    3.51
 -12   8   0   -0.15    7.01
 -12   8   0    3.82    4.01
  12  -8   0    5.70    3.11
 -12  -8   0    7.46    5.09
  12   8   0    3.65    4.38
  12   8   0    1.20    3.12
  12   8  -1    0.44    3.69
 -12  -8  -1    3.91    5.40
  12   8  -1    2.90    4.52
 -12  -8  -1    3.86    4.65
 -12   8   1    0.78    6.41
  12   8  -1   -0.41    3.22
 -12   8   1    5.92    3.90
 -12  -8  -1    3.13    4.29
  12  -8   1    4.26    3.68
  12  -8   1    3.36    3.25
  12   8   1    1.59    4.59
 -12   8  -1   -0.08    6.37
  12   8   1   -0.68    3.58
  12  -8  -1    1.44    4.26
 -12   8  -1    2.79    4.04
  12   8   1    1.19    3.00
  12  -8   2    8.11    3.95
 -12  -8  -2    2.78    4.21
 -12  -8  -2    4.90    4.74
  12   8  -2    6.70    4.32
 -12   8   2    4.76    3.65
  12  -8   2    5.87    3.42
  12   8  -2    0.57    3.19
 -12  -8  -2   11.18    5.64
  12   8  -2    8.40    3.96
 -12   8   2   -0.06    6.01
  12   8   2    9.79    3.08
 -12   8  -2    5.13    4.30
  12   8   2    4.02    3.52
 -12   8  -2   11.06    6.04
  12   8   2    3.88    5.43
  12  -8  -2    4.38    4.34
  12  -8   3    0.75    4.06
 -12   8   3    8.53    4.20
  12  -8   3    2.16    3.52
 -12  -8  -3   14.95    5.81
 -12  -8  -3   10.12    5.40
 -12   8   3    0.70    5.46
  12   8  -3   -0.38    4.03
 -12  -8  -3    7.70    4.34
  12   8  -3    6.58    4.41
  12   8   3    9.50    3.72
 -12   8  -3    8.93    5.53
  12  -8  -3    2.34    4.36
 -12   8  -3    2.51    4.36
  12   8   3    7.55    2.87
  12   8   3    1.52    5.42
 -12  -8  -4   -0.24    5.79
 -12   8   4    1.04    4.11
 -12  -8  -4   -2.70    4.00
  12  -8   4   -5.22    4.43
  12  -8   4    2.73    3.80
  12   8  -4    8.84    4.82
 -12  -8  -4    8.46    5.84
  12   8  -4    0.22    4.62
 -12   8   4   -1.25    5.56
 -12   8  -4   -1.27    4.53
  12   8   4    2.34    2.87
 -12   8  -4   17.49    5.75
 -12  -8   4    6.52    3.71
  12   8   4    2.50    5.76
  12   8   4   11.62    3.62
  12  -8  -4    1.93    4.42
  12   8  -5   -5.80    4.90
  12   8  -5    5.79    5.23
 -12  -8  -5    9.56    4.29
 -12   8   5   -3.14    5.52
  12  -8   5    6.73    4.17
  12  -8   5   -6.41    5.14
 -12   8   5   -0.78    4.69
 -12  -8  -5   10.84    6.36
 -12  -8  -5    2.13    6.08
  12   8   5    3.80    6.11
  12   8   5    6.21    3.11
  12   8   5    5.73    3.88
  12  -8  -5   -3.71    4.48
 -12  -8   5    0.84    4.11
 -12   8  -5    1.75    4.96
 -12   8  -5    9.70    5.56
 -12   8  -5    1.12    4.28
 -12  -8  -6    8.99    4.63
  12   8  -6    7.75    5.51
 -12  -8  -6   11.59    6.77
 -12   8   6   -3.04    6.04
 -12   8   6    4.93    4.87
  12  -8   6    0.84    4.31
 -12  -8  -6   13.90    6.73
  12  -8   6    1.97    5.58
 -12   8  -6   16.24    5.99
 -12   8  -6   -4.53    5.06
  12   8   6    8.04    4.02
 -12  -8   6    6.80    4.81
 -12   8  -6    2.60    4.62
  12   8   6    9.74    3.15
  12   8   6   -4.84    6.22
 -12  -8   6    2.86    2.98
 -12  -8   6    6.82    5.54
  12  -8  -6    5.85    4.81
 -13  -8   0   37.04    5.78
 -13  -8   0   30.87    5.34
  13  -8   0   38.70    3.83
 -13   8   0   33.32    7.85
  13   8   0   37.19    4.56
  13   8   0   26.88    5.26
 -13  -8   0   39.19    4.95
 -13   8   0   34.62    4.95
  13   8   0   31.50    4.02
 -13  -8  -1   34.66    5.39
 -13   8   1   27.02    4.67
  13  -8   1   38.54    4.68
 -13  -8  -1   31.34    6.09
  13  -8   1   29.07    3.84
 -13   8   1   24.88    7.40
  13   8  -1   30.57    5.46
  13   8  -1   31.95    4.51
  13   8  -1   35.92    4.14
 -13  -8  -1   29.78    4.79
  13   8   1   28.28    3.73
  13   8   1   35.07    4.37
 -13   8  -1   41.44    7.45
 -13   8  -1   29.76    4.98
 -13  -8   1   35.44    4.84
  13  -8  -1   29.96    3.38
  13   8   1   33.40    5.96
  13   8  -2   31.63    4.83
 -13  -8  -2   29.01    6.46
 -13  -8  -2   31.91    5.91
 -13   8   2   28.79    4.75
  13   8  -2   29.25    5.44
  13   8  -2   27.60    4.13
 -13   8   2   18.62    6.85
  13  -8   2   25.78    3.93
 -13  -8  -2   27.95    4.96
  13  -8   2   27.67    4.50
 -13   8  -2   44.48    7.42
  13   8   2   26.35    5.93
  13  -8  -2   24.87    5.32
  13   8   2   28.85    3.81
  13   8   2   34.40    4.39
 -13   8  -2   30.08    5.18
  13  -8   3   21.18    4.69
  13   8  -3   19.82    4.77
 -13   8   3   17.71    6.60
 -13   8   3   23.74    4.90
 -13  -8  -3   18.38    6.44
  13   8  -3   25.30    5.37
 -13  -8  -3   16.74    4.99
  13  -8   3   21.16    4.12
 -13  -8  -3   23.60    6.39
 -13   8  -3   30.77    6.38
  13  -8  -3   16.92    5.19
  13   8   3   17.67    3.29
  13   8   3   25.44    6.48
 -13   8  -3   16.53    4.96
  13   8   3   22.19    4.26
 -13  -8  -4   24.00    6.97
 -13   8   4   11.60    4.89
 -13  -8  -4   14.50    5.20
  13   8  -4   13.55    5.24
  13   8  -4   16.78    5.43
  13  -8   4   12.09    4.27
 -13   8   4    7.15    6.25
  13  -8   4   12.91    4.97
 -13  -8  -4   22.70    6.93
 -13   8  -4    7.73    5.15
  13   8   4   25.11    4.40
  13   8   4   17.62    3.52
 -13   8  -4   26.04    6.21
  13  -8  -4   14.27    5.27
  13   8   4    9.05    6.31
 -13  -8  -5   18.33    6.98
 -13  -8  -5    6.82    4.59
  13   8  -5   14.81    5.63
  13  -8   5    8.48    4.41
  13   8  -5    9.89    5.31
 -13  -8  -5    9.31    6.45
  13  -8   5    8.18    5.42
 -13   8   5   -6.33    5.54
 -13   8   5    6.14    4.90
 -13   8  -5    8.62    4.78
 -13   8  -5   15.84    5.57
  13   8   5    8.66    3.30
  13   8   5    8.80    3.92
 -13  -8   5    8.10    4.25
  13  -8  -5    6.96    4.92
 -13   8  -5    4.15    5.40
  13   8   5    4.73    6.31
 -13  -8  -6    5.36    4.63
  13  -8   6    6.16    4.48
 -13   8   6   -6.74    5.99
  13  -8  -6    6.67    5.15
 -13   8  -6   12.60    6.76
 -14  -8   0    2.09    5.11
  14   8   0    5.11    3.40
 -14  -8   0    2.64    4.46
  14  -8   0    7.06    3.02
 -14   8   0    0.08    4.06
  14   8   0    8.15    4.00
 -14  -8   0    4.58    4.63
 -14   8   0    6.77    6.86
  14   8   0    6.53    4.67
  14  -8   1    2.21    3.17
  14  -8   1    7.59    3.60
 -14  -8  -1    0.71    4.43
  14   8  -1    6.12    3.43
 -14  -8  -1    6.90    5.57
  14   8  -1   10.86    4.69
 -14   8   1    6.07    4.22
  14   8  -1    9.95    4.07
 -14  -8  -1    9.49    5.20
 -14  -8   1    4.47    4.25
  14   8   1    5.33    3.18
 -14   8  -1    2.77    4.28
  14   8   1    5.99    5.17
  14   8   1    8.63    3.85
 -14  -8   1    4.34    4.40
  14  -8  -1    4.89    2.85
 -14   8  -1   13.63    6.18
 -14  -8   1    1.13    4.61
  14   8  -2    5.83    3.64
  14  -8   2    6.46    4.02
  14  -8   2   -1.03    3.33
 -14  -8  -2    2.93    5.84
 -14   8   2   -8.84    6.08
  14   8  -2    8.11    4.75
 -14  -8  -2    4.17    5.53
  14   8  -2    5.75    4.36
 -14   8   2    5.83    4.31
 -14  -8  -2    4.03    4.46
  14   8   2   -1.25    5.20
 -14   8  -2   -0.82    4.49
  14  -8  -2   -2.79    4.68
 -14  -8   2   -0.20    4.10
  14   8   2    7.64    3.74
 -14   8  -2   11.94    5.62
  14   8   2    4.37    3.21
  14   8  -3    4.43    4.53
  14  -8   3    0.24    3.43
 -14  -8  -3    0.94    4.64
  14  -8   3   -3.64    4.14
 -14  -8  -3    2.64    6.19
  14   8  -3    2.87    4.84
 -14  -8  -3   -1.60    6.12
 -14   8   3   -2.04    4.21
  14   8   3    2.54    3.95
  14   8   3    2.59    3.02
 -14   8  -3   14.44    5.66
  14   8   3    4.99    6.29
 -14   8  -3   -1.30    4.60
  14  -8  -3   -4.46    4.66
 -14   8   4    0.95    4.56
 -14  -8  -4    5.56    6.43
  14  -8   4    2.46    4.63
 -14   8   4   -8.27    5.79
  14   8  -4    3.52    5.08
  14  -8   4   -3.83    3.67
 -14  -8  -4    1.08    4.90
  14   8  -4    4.18    5.13
 -14  -8  -4    1.58    6.35
  14   8   4   10.54    6.76
 -14   8  -4   -4.80    4.79
  14   8   4    3.54    3.04
  14  -8  -4   -1.03    4.92
  14   8   4    8.47    4.14
 -14   8  -4    9.39    5.71
  14   8  -5   10.36    5.60
  14   8  -5    3.39    5.33
  14  -8   5   -3.24    4.92
 -14  -8  -5    9.62    6.79
 -14  -8  -5    1.11    4.67
 -14  -8  -5    0.97    6.54
 -14   8   5   -1.96    6.18
  14  -8   5    2.67    4.08
 -14   8   5    3.24    4.89
  14   8   5    3.02    3.86
 -14   8  -5   -3.35    4.94
 -14   8  -5   -3.54    5.29
  14  -8  -5   -2.70    4.83
  14   8   5    2.69    6.44
 -14  -8   5    7.44    4.31
  14   8   5    6.57    3.20
 -15  -8   0   21.85    5.20
 -15   8   0   18.59    7.33
 -15   8   0   19.11    5.11
 -15  -8   0   19.99    5.90
  15  -8   0   19.15    3.58
  15   8   0   23.58    4.59
 -15  -8   0   19.85    5.36
  15   8   0   13.30    3.83
  15   8   0   22.85    5.31
 -15  -8  -1   32.20    5.40
 -15  -8  -1   26.31    5.86
  15   8  -1   31.23    5.87
  15  -8   1   22.53    3.85
  15   8  -1   26.42    4.14
  15  -8   1   22.24    4.15
  15   8  -1   24.28    4.72
 -15   8   1   23.84    5.26
 -15  -8  -1   28.74    6.42
 -15   8   1   14.99    7.76
 -15   8  -1   36.26    7.89
 -15   8  -1   19.70    5.43
 -15  -8   1   24.56    5.71
 -15  -8   1   25.24    5.21
  15   8   1   32.03    6.33
  15  -8  -1   21.84    3.37
  15   8   1   21.62    3.89
 -15  -8   1   19.14    5.15
  15   8   1   31.26    4.71
  15   8  -2   17.21    4.36
 -15   8   2   14.10    4.78
 -15   8   2    1.54    6.87
  15  -8   2   15.17    4.42
 -15  -8  -2   13.46    5.12
 -15  -8  -2   22.49    6.71
 -15  -8  -2   23.31    6.48
  15   8  -2   27.58    5.89
  15  -8   2   15.42    3.92
  15   8  -2   21.33    5.04
 -15   8  -2   11.43    5.18
  15   8   2   21.57    4.37
  15   8   2   27.82    6.47
 -15  -8   2   15.39    4.83
  15   8   2   16.80    3.74
  15  -8   3    7.83    3.80
 -15  -8  -3   24.67    7.11
  15   8  -3   24.18    5.95
 -15  -8  -3   15.50    5.18
 -15   8   3   14.71    5.22
  15  -8   3   10.61    4.64
 -15   8   3   -3.68    6.74
 -15  -8  -3   14.10    6.90
  15   8  -3   15.77    5.14
  15   8   3   21.06    4.49
  15  -8  -3   12.44    5.47
  15   8   3   13.92    3.55
 -15   8  -3   13.26    5.30
  15   8   3   18.51    6.85
 -15  -8  -4   12.56    5.55
 -15  -8  -4    8.81    7.01
  15   8  -4   25.60    5.95
  15   8  -4   17.85    5.94
  15  -8   4   13.15    4.32
  15  -8   4   14.00    5.00
 -15  -8  -4   20.66    7.14
 -15   8   4   14.30    5.29
 -15   8   4    2.56    6.55
  15  -8  -4    8.64    5.56
  15   8   4   22.44    4.63
  15   8   4   16.48    3.63
 -15   8  -4    7.57    5.31
 -15   8  -4   17.54    5.94
  15   8   4   15.43    6.85
 -16   8   0   -5.54    4.52
 -16  -8   0    0.68    5.05
 -16  -8   0    2.35    5.69
 -16  -8   0    1.57    4.96
  16  -8   0    7.36    3.45
  16  -8   0    7.37    3.32
  16   8   0    1.41    3.59
  16   8   0   11.08    4.84
  16   8   0    1.02    4.08
  16  -8   1    2.33    3.18
 -16  -8  -1    6.72    5.09
  16   8  -1    6.03    3.84
 -16   8   1   -2.91    4.53
  16   8  -1    5.55    4.54
 -16  -8  -1    1.04    5.55
  16   8  -1   10.43    5.08
 -16  -8  -1    0.48    5.74
  16  -8   1    8.97    3.67
 -16  -8   1   -4.33    4.75
 -16  -8   1    0.65    4.77
  16   8   1   12.84    5.70
 -16   8  -1   -3.42    4.74
 -16  -8   1   -2.36    5.40
  16   8   1    0.32    3.47
  16   8   1    8.26    4.20
  16  -8  -1    2.63    2.98
  16   8  -2    4.02    4.21
  16   8  -2    2.85    4.48
 -16  -8  -2   -0.72    6.40
  16  -8   2   10.57    4.20
 -16  -8  -2    0.66    5.04
  16   8  -2    9.55    5.37
  16  -8   2    0.92    3.38
 -16   8   2    1.01    5.01
 -16  -8  -2    5.89    6.42
 -16   8  -2   -0.67    4.90
  16   8   2    5.58    3.96
  16   8   2    0.93    5.77
  16   8   2    4.50    3.48
  16  -8   3    3.33    3.74
 -16   8   3  -17.22    8.48
 -16  -8  -3    2.54    5.04
 -16  -8  -3   -0.80    6.81
  16  -8   3   -1.47    4.33
  16   8  -3    6.54    4.96
 -16   8   3    4.21    5.01
 -16  -8  -3    6.15    6.93
  16   8  -3    5.74    5.12
  16   8   3   -3.58    6.07
  16   8   3    6.82    3.50
 -16   8  -3   -0.75    4.81
  16   8   3    7.27    4.32
 -16   8   4   -7.97    7.50
  16  -8   4    4.88    4.02
 -16  -8  -4   -1.79    5.46
  16   8  -4    7.87    5.55
  16  -8   4   -2.16    4.80
 -16  -8  -4    0.75    6.87
 -16  -8  -4    6.59    6.84
  16   8  -4    4.96    5.33
 -16   8   4    0.26    5.24
  16   8   4    7.15    3.51
  16   8   4    3.31    4.34
 -16   8  -4    4.84    6.32
  16  -8  -4   -5.84    5.16
 -16   8  -4   -8.12    5.17
  16   8   4    3.78    6.32
  17  -8   0   15.25    4.12
  17   8   0   20.20    4.75
  17   8   0   20.21    5.49
  17  -8   0   12.61    3.46
 -17  -8   0    9.67    5.15
 -17  -8   0   10.85    6.33
  17   8   0    3.51    3.81
 -17   8   0    4.22    5.14
 -17  -8   0    8.83    5.92
 -17  -8  -1    2.08    5.06
  17  -8   1   18.49    3.93
  17   8  -1   23.71    5.02
  17   8  -1   14.11    4.24
  17   8  -1   20.81    5.60
 -17  -8  -1    4.98    6.64
 -17   8   1    7.27    5.41
 -17  -8  -1    2.18    6.17
  17  -8   1   20.63    3.78
  17  -8  -1   16.21    3.33
 -17   8  -1    9.84    5.45
  17   8   1   10.02    3.83
  17   8   1   16.97    5.84
 -17  -8   1    1.75    4.98
  17   8   1   25.39    4.81
 -17   8   2    3.24    5.31
  17   8  -2   20.69    5.84
  17   8  -2   20.87    5.26
  17  -8   2   12.24    3.84
 -17  -8  -2    3.42    5.29
 -17  -8  -2   10.48    6.74
  17  -8   2   11.54    4.24
  17   8  -2    9.37    4.30
 -17  -8  -2   10.92    6.90
  17   8   2    8.04    3.70
 -17   8  -2   -0.57    5.01
  17   8   2   15.89    6.46
  17   8   2   24.61    4.86
  17   8  -3   19.07    5.44
  17  -8   3    5.55    4.53
 -17  -8  -3    8.01    5.47
  17   8  -3   19.36    5.76
 -17  -8  -3   14.00    7.65
 -17   8   3   -0.54    5.29
 -17  -8  -3   13.66    7.45
  17  -8   3   13.49    4.22
  17   8   3   13.96    6.65
  17   8   3   14.28    4.81
 -17   8  -3    1.56    5.41
  17   8   3   13.91    3.94
  18   8   0   11.69    4.82
 -18  -8   0   -1.41    5.73
 -18   8   0   -8.29    5.15
  18   8   0    6.66    3.95
 -18  -8   0   -4.25    5.97
  18  -8   0    7.32    3.39
 -18  -8   0   -4.59    5.24
  18   8   0   14.13    5.28
 -18  -8  -1   -0.87    6.52
 -18  -8  -1   -5.52    5.13
  18   8  -1    6.44    4.24
  18   8  -1   19.63    5.41
 -18  -8  -1   -1.60    6.58
  18  -8   1   10.28    3.97
  18  -8   1    7.25    3.65
  18   8  -1    4.91    4.71
 -18   8   1   -2.13    5.36
  18   8   1   11.08    4.04
 -18   8  -1   -4.95    5.19
  18   8   1   14.95    5.55
  18   8   1    9.46    4.61
  18  -8  -1    6.39    3.28
 -18  -8   1    0.45    5.09
   0   9   0    2.19    4.22
   0  -9   1   12.46    2.38
   0   9  -1   11.49    4.56
   0  -9  -1   11.02    2.35
   0   9   1   12.93    4.51
   0  -9  -1    8.53    2.51
   0  -9  -1    8.25    2.32
   0  -9  -2   34.22    3.63
   0   9  -2   30.92    3.74
   0   9   2   31.03    5.14
   0  -9   2   32.65    3.30
   0  -9  -2   24.57    3.44
   0  -9  -2   27.16    2.91
   0  -9   2   34.59    4.00
   0   9  -2   25.94    4.97
   0   9   3   24.20    4.56
   0   9   3   18.14    3.78
   0  -9  -3   21.42    3.21
   0  -9   3   17.98    3.50
   0  -9  -3   17.19    3.66
   0   9  -3   18.73    5.14
   0  -9   3   22.17    3.78
   0  -9  -3   19.89    3.41
   0   9  -3   19.15    3.77
   0  -9   3   20.78    3.17
   0   9  -4   16.88    4.42
   0  -9   4   21.56    4.51
   0   9   4   18.72    5.16
   0  -9  -4   15.11    3.41
   0   9   4   17.57    4.43
   0  -9  -4    9.09    4.02
   0   9  -4   17.30    5.66
   0  -9   4   15.97    4.09
   0  -9  -4   14.77    3.85
   0  -9   4   17.41    3.61
   0   9  -5   19.32    6.52
   0  -9   5   13.62    3.87
   0   9   5   12.72    5.21
   0  -9  -5   13.43    3.56
   0  -9   5   15.54    4.46
   0  -9  -5    8.79    4.83
   0   9   5   14.26    5.70
   0  -9   5   11.02    4.98
   0  -9  -5   10.45    4.50
   0  -9  -6   45.36    5.81
   0  -9   6   43.49    6.49
   0   9   6   33.12    6.18
   0  -9  -6   40.91    5.75
   0  -9   6   22.28    4.11
   0  -9  -6   32.29    6.32
   0   9   6   36.99    7.20
   0   9  -6   40.42    7.66
   0  -9  -6   40.27    4.29
   0  -9   6   28.29    4.86
   0  -9  -7   25.17    4.42
   0  -9   7   11.48    5.05
   0   9  -7   16.03    7.00
   0  -9  -7   15.84    6.18
   0   9   7   18.07    6.92
   0  -9  -7   27.35    5.97
   0  -9   7   14.22    4.57
   0   9   7   12.48    6.64
   0  -9   7   20.69    6.44
   0  -9  -7   32.33    5.76
   0   9   8   -0.50    7.08
   0  -9   8    9.59    5.07
   0   9   8   13.52    7.18
   0  -9  -8   21.78    5.66
   0  -9   8   12.26    6.64
   0  -9  -8   10.35    6.51
   0   9  -8   14.80    7.22
   0  -9  -8   20.24    5.47
   0  -9  -8   20.46    4.15
   0  -9   8    0.76    5.62
   1   9   0   28.60    5.11
   1   9   0   29.06    3.23
  -1   9   0   25.86    5.10
   1  -9   0   30.02    3.09
   1  -9   1   30.22    3.00
   1   9  -1   31.37    5.65
  -1  -9  -1   28.65    3.68
  -1  -9  -1   30.73    3.00
  -1   9   1   31.02    5.18
  -1  -9  -1   31.94    3.30
   1   9  -1   32.98    3.49
  -1   9  -1   31.58    5.49
   1  -9  -1   35.48    2.89
   1  -9  -1   31.59    3.53
   1  -9  -1   34.71    3.25
  -1  -9   1   33.68    2.88
   1   9   1   30.23    5.51
   1   9  -2   19.05    3.14
   1   9  -2   16.05    4.30
  -1  -9  -2   13.95    3.20
  -1  -9  -2   17.57    2.89
  -1   9   2   15.05    4.07
   1  -9   2   14.86    3.14
  -1  -9  -2   14.15    2.91
   1  -9   2   14.06    2.80
  -1  -9   2   18.89    3.04
   1  -9  -2   17.97    2.71
   1   9   2   19.91    4.28
  -1   9  -2   12.00    4.21
   1  -9  -2   12.65    3.06
   1   9   2   21.19    3.45
   1  -9  -2   18.21    2.80
  -1  -9   2   16.41    2.75
   1  -9   3    9.61    3.09
  -1  -9  -3    8.37    2.98
   1   9  -3    8.90    4.73
   1  -9   3   16.14    3.56
   1   9  -3   13.16    3.58
  -1   9   3   12.91    4.18
  -1  -9  -3    5.58    2.98
  -1  -9  -3    9.68    3.64
   1  -9   3   10.86    3.51
   1  -9  -3   12.36    3.45
  -1  -9   3   12.36    3.02
  -1   9  -3   14.20    3.60
  -1   9  -3    9.65    4.76
   1   9   3   11.26    4.01
  -1  -9   3   15.35    3.42
  -1  -9   3   12.39    3.39
   1  -9  -3   11.83    2.89
   1  -9  -3    8.86    3.02
   1   9   3   10.81    3.67
  -1  -9  -4    4.64    4.03
   1   9  -4   11.66    4.31
   1  -9   4    8.32    3.28
  -1   9   4   13.06    4.86
  -1  -9  -4    6.34    3.62
   1  -9   4   11.80    3.96
   1   9  -4    5.93    5.33
   1  -9   4   13.56    4.23
  -1   9   4   11.86    4.14
  -1  -9  -4    5.78    3.40
  -1  -9   4    6.66    4.17
  -1  -9   4    9.43    3.19
  -1  -9   4    8.70    3.81
   1  -9  -4    5.05    3.95
   1   9   4   12.13    4.50
  -1   9  -4    2.89    5.03
  -1   9  -4   11.72    4.31
   1  -9  -4    8.52    3.60
   1  -9  -4    9.30    3.31
   1   9   4    8.46    4.59
   1   9  -5   -2.61    5.48
   1  -9   5    6.07    3.87
  -1   9   5    2.77    4.78
   1  -9   5    7.19    4.80
  -1  -9  -5    0.15    4.74
  -1  -9  -5    1.42    3.44
  -1  -9  -5    0.14    4.34
   1   9  -5    0.33    4.69
  -1   9   5    1.15    5.08
   1  -9   5    2.25    3.53
  -1  -9   5    1.37    3.81
   1   9   5    4.91    5.21
   1  -9  -5    1.56    4.56
  -1  -9   5    1.90    3.35
   1   9   5    3.89    5.19
  -1  -9   5    7.44    4.85
   1  -9  -5   -0.26    3.34
   1  -9  -5   -1.67    4.00
  -1   9  -5    4.37    5.66
   1  -9   6    5.37    3.74
   1   9  -6    7.60    6.01
  -1  -9  -6   11.14    4.95
   1  -9   6    0.68    4.83
  -1  -9  -6    7.81    4.64
   1  -9   6    0.55    3.87
  -1  -9  -6    5.65    5.01
  -1  -9  -6    8.77    3.22
  -1   9   6   -2.23    4.85
  -1   9   6    4.77    5.46
  -1   9  -6    7.81    5.57
  -1  -9   6    1.42    3.39
   1  -9  -6    6.04    3.45
   1  -9  -6    8.52    4.73
   1   9   6    9.04    5.62
  -1  -9   6    2.06    3.85
   1  -9  -6    7.50    4.59
   1   9   6    3.12    5.33
  -1  -9   6    1.26    4.64
   1  -9  -6    0.04    4.89
  -1   9   7    3.45    6.24
   1   9  -7    6.29    6.49
   1  -9   7   -0.42    4.68
  -1  -9  -7    9.37    3.39
  -1   9   7    5.44    6.35
  -1  -9  -7    9.27    5.39
   1  -9   7    0.94    4.11
  -1  -9  -7   13.69    5.21
   1  -9   7    1.96    5.83
  -1  -9  -7    2.74    5.47
  -1   9  -7    6.48    6.57
  -1  -9   7    0.61    3.68
   1  -9  -7    7.32    5.08
  -1  -9   7    1.44    4.57
   1  -9  -7    9.19    4.69
   1  -9  -7   10.32    3.86
   1   9   7    0.25    6.15
   1  -9  -7    6.01    5.81
  -1  -9   7    5.44    5.76
   1   9   7    2.31    5.89
  -1   9   8  -11.52    6.62
   1  -9   8   -6.24    5.36
   1  -9   8   -7.79    4.31
  -1  -9  -8   -0.69    5.72
   1   9  -8    3.78    6.63
  -1  -9  -8   13.74    5.08
  -1  -9  -8   12.44    3.96
  -1  -9  -8   18.55    5.56
  -1   9   8    3.61    6.53
   1  -9   8   -9.77    6.08
   1  -9  -8   -1.92    5.87
   1   9   8   -5.79    6.72
  -1  -9   8   -2.77    4.44
   1   9   8    3.92    6.75
  -1   9  -8    4.89    6.58
   1  -9  -8   14.59    3.89
  -1  -9   8   -3.92    5.04
  -1  -9   8    4.33    6.36
   1  -9  -8   10.28    4.92
   1  -9  -8   10.38    5.32
   2   9   0   11.50    2.72
   2   9   0   12.62    4.62
   2  -9   0   10.10    2.37
  -2   9   0   15.35    4.76
   2   9  -1    1.95    2.42
   2   9  -1    2.90    3.95
  -2   9   1    2.03    4.30
  -2  -9  -1   -1.24    2.28
  -2  -9  -1    0.02    2.56
  -2  -9  -1    1.13    2.27
   2   9   1    7.83    3.88
   2  -9  -1    2.67    2.31
   2  -9  -1    1.47    1.96
   2   9   1    0.87    2.92
   2  -9  -1   -0.37    2.17
  -2   9  -1    5.14    4.55
  -2  -9   1    3.54    2.01
  -2  -9   1    2.14    2.27
   2   9  -2   16.31    4.54
   2   9  -2   17.36    3.25
  -2  -9  -2   18.96    2.88
  -2  -9  -2   17.95    3.08
   2  -9   2   22.24    3.33
   2  -9   2   15.88    2.84
  -2  -9  -2   15.67    3.35
  -2   9   2   16.03    4.26
  -2  -9   2   18.04    3.03
  -2   9  -2   15.99    4.83
   2  -9  -2   19.00    2.61
   2   9   2   20.88    3.67
   2  -9  -2   20.19    2.99
   2  -9  -2   17.47    3.14
   2   9   2   18.75    4.18
  -2  -9   2   19.10    2.79
   2  -9   3   23.93    3.77
   2   9  -3   19.94    5.25
  -2  -9  -3   20.84    4.07
   2  -9   3   22.48    3.39
   2   9  -3   17.69    3.86
   2  -9   3   23.27    3.76
  -2  -9  -3   19.52    3.61
  -2   9   3   22.00    4.59
  -2  -9  -3   18.89    3.30
   2   9   3   18.43    4.34
  -2   9  -3   15.44    4.89
   2   9   3   20.50    4.18
   2  -9  -3   17.55    3.33
  -2  -9   3   18.42    3.25
  -2  -9   3   24.45    3.59
   2  -9  -3   23.43    3.13
   2  -9  -3   19.56    3.35
  -2  -9  -4   11.56    3.43
   2  -9   4   17.20    4.35
  -2  -9  -4   10.88    3.92
   2   9  -4   12.77    5.63
   2  -9   4   15.70    3.69
  -2   9   4   16.30    5.10
  -2  -9  -4   16.71    4.49
   2  -9   4   13.48    3.97
   2   9  -4   14.16    4.45
   2   9   4   14.34    4.78
  -2  -9   4   15.10    4.39
   2  -9  -4   14.56    4.18
   2  -9  -4   15.32    3.25
  -2   9  -4   11.71    5.34
   2   9   4   14.00    4.79
  -2  -9   4   12.94    3.45
   2  -9  -4   14.00    3.67
  -2  -9   4   10.99    3.78
  -2   9   5   27.84    6.21
  -2  -9  -5   25.24    4.01
   2   9  -5   30.35    5.64
  -2  -9  -5   28.60    5.24
   2  -9   5   41.55    6.09
  -2  -9  -5   30.76    5.62
   2  -9   5   27.01    4.37
   2   9  -5   29.67    6.99
   2  -9   5   24.26    4.73
  -2   9   5   25.48    5.17
   2  -9  -5   34.95    5.46
   2  -9  -5   32.73    4.23
  -2  -9   5   25.74    4.63
  -2  -9   5   32.04    5.72
  -2  -9   5   27.87    4.10
   2  -9  -5   30.68    4.98
   2   9   5   33.58    6.43
   2   9   5   34.10    6.09
  -2   9  -5   24.85    6.80
  -2   9   6    6.07    5.29
  -2   9   6   12.59    5.87
   2   9  -6   18.18    6.68
   2  -9   6    9.01    3.95
   2  -9   6    2.67    4.20
  -2  -9  -6   19.94    5.25
  -2  -9  -6   19.29    3.79
   2  -9   6   10.27    5.23
  -2  -9  -6   11.83    5.30
  -2  -9  -6   18.43    5.33
   2   9  -6   13.99    5.31
  -2  -9   6    8.85    3.60
  -2  -9   6   11.85    5.25
   2  -9  -6   17.05    5.07
  -2   9  -6   11.47    5.91
  -2  -9   6    9.95    4.39
   2  -9  -6   12.13    3.56
   2   9   6   10.68    5.72
   2  -9  -6   12.97    5.63
   2   9   6    6.58    5.57
   2  -9  -6   15.22    4.72
  -2  -9  -7   26.68    4.37
  -2   9   7   15.66    6.86
  -2  -9  -7   27.30    6.32
   2   9  -7   23.71    7.35
   2  -9   7    7.35    5.12
  -2  -9  -7   13.47    6.09
  -2  -9  -7   33.05    6.19
   2  -9   7   10.78    4.51
   2  -9   7   15.96    6.39
  -2   9   7    3.85    6.28
   2   9   7    6.76    6.42
  -2  -9   7   18.08    5.37
   2  -9  -7   21.66    5.46
   2  -9  -7   19.51    4.25
  -2  -9   7   10.97    4.22
   2   9   7   18.58    6.94
  -2   9  -7   22.78    7.15
   2  -9  -7   16.09    6.46
   2  -9  -7   25.87    5.95
  -2  -9   7   14.34    6.21
   2  -9   8   -1.03    5.51
  -2  -9  -8    3.63    6.00
  -2   9   8  -12.93    6.79
   2   9  -8    7.95    6.72
   2  -9   8   10.98    7.13
  -2   9   8    4.83    7.01
   2  -9   8    2.78    4.79
  -2  -9  -8   15.34    3.80
  -2  -9  -8   11.77    5.34
  -2   9  -8   12.62    7.04
  -2  -9   8    1.11    6.29
   2   9   8    6.63    6.82
   2   9   8   -8.02    6.49
   2  -9  -8   14.41    5.63
   2  -9  -8    5.10    6.30
   2  -9  -8   12.66    4.02
   2  -9  -8    9.44    5.18
  -2  -9   8   10.05    5.72
  -2  -9   8    3.90    4.71
   3   9   0   43.44    6.04
  -3   9   0   42.36    6.27
   3   9   0   45.65    4.14
   3  -9   0   46.42    3.48
   3  -9   1   95.73    3.91
  -3  -9  -1   97.29    3.91
   3   9  -1   95.30    4.82
   3   9  -1   99.69    4.04
   3   9  -1   95.29    6.75
  -3  -9  -1   91.44    4.76
  -3  -9  -1   91.35    4.33
  -3   9   1   93.13    7.04
   3   9   1   92.12    5.39
  -3  -9   1   94.10    4.15
   3   9   1   88.39    6.18
   3  -9  -1   93.96    4.54
  -3   9  -1   90.49    7.42
   3  -9  -1   99.01    4.23
   3  -9  -1   89.95    3.53
   3  -9   2   54.81    4.51
   3   9  -2   53.38    4.50
   3   9  -2   51.43    6.06
  -3   9   2   54.06    5.91
  -3  -9  -2   54.03    3.64
   3  -9   2   54.37    3.98
  -3  -9  -2   50.59    4.67
  -3  -9  -2   51.32    4.17
   3   9   2   56.08    5.13
  -3  -9   2   53.17    3.54
   3  -9  -2   50.76    3.33
   3   9   2   48.80    5.42
   3  -9  -2   51.52    3.96
  -3   9  -2   52.22    6.66
   3  -9  -2   48.03    4.35
  -3  -9   2   51.12    4.08
   3   9  -3   25.66    4.18
   3   9  -3   25.78    5.68
  -3  -9  -3   19.73    3.65
  -3  -9  -3   19.19    3.45
  -3  -9  -3   20.17    4.11
   3  -9   3   25.10    4.07
   3  -9   3   23.86    3.63
  -3   9   3   18.19    4.56
  -3  -9   3   24.06    3.63
   3   9   3   22.65    4.48
  -3   9  -3   16.23    5.25
   3  -9  -3   23.31    3.62
   3  -9  -3   19.60    2.92
   3   9   3   20.81    4.49
  -3  -9   3   25.40    3.32
   3  -9  -3   16.56    3.65
   3   9  -4   49.85    5.87
   3  -9   4   54.01    5.69
   3  -9   4   43.42    4.55
  -3  -9  -4   46.15    5.30
   3  -9   4   45.18    5.77
   3   9  -4   45.03    7.48
  -3   9   4   49.72    6.79
  -3  -9  -4   47.16    5.95
  -3  -9  -4   40.15    4.20
   3   9   4   47.51    6.27
   3  -9  -4   44.21    4.78
  -3  -9   4   46.77    5.73
   3  -9  -4   46.99    5.52
   3   9   4   49.87    6.51
  -3  -9   4   44.88    4.60
  -3   9  -4   34.67    6.55
   3  -9  -4   44.78    3.88
  -3  -9   4   48.01    5.03
  -3  -9  -5    8.52    4.63
  -3   9   5    6.52    4.62
  -3  -9  -5   13.53    5.13
   3   9  -5   18.15    5.28
   3  -9   5    8.06    4.48
   3  -9   5    6.68    3.89
  -3  -9  -5    9.88    3.62
   3   9  -5   11.19    6.45
   3  -9   5    7.84    4.84
  -3   9   5    7.65    5.29
  -3  -9   5   11.82    5.16
  -3  -9   5    8.42    3.59
  -3   9  -5    5.23    5.82
   3  -9  -5   16.40    4.58
   3   9   5   11.15    5.45
   3  -9  -5   11.19    4.78
   3  -9  -5   12.86    3.42
  -3  -9   5   10.05    4.10
   3   9   5   10.82    5.71
   3   9  -6    2.81    5.75
   3  -9   6    0.70    3.75
  -3  -9  -6    3.67    4.60
  -3   9   6    2.72    5.25
   3   9  -6   -2.70    4.83
  -3   9   6   -3.44    4.90
  -3  -9  -6    5.57    4.96
   3  -9   6    2.03    5.03
  -3  -9  -6    4.00    3.23
  -3  -9  -6    3.81    4.68
   3  -9   6   -8.82    3.90
   3  -9  -6    2.78    5.14
  -3  -9   6   -0.58    4.62
   3   9   6   -5.78    5.27
  -3   9  -6    1.19    5.08
   3   9   6    2.91    5.26
   3  -9  -6   -4.12    4.20
   3  -9  -6    9.00    4.57
  -3  -9   6    1.96    3.84
   3  -9  -6    1.43    3.27
  -3  -9   6    2.78    3.29
  -3  -9  -7    9.81    5.61
  -3  -9  -7    6.84    3.78
   3  -9   7   -2.32    4.21
   3   9  -7    2.15    6.21
  -3   9   7    2.26    6.10
   3  -9   7    4.98    5.08
   3  -9   7   -2.36    5.79
  -3  -9  -7   14.19    5.55
  -3  -9  -7   -2.75    5.06
   3  -9  -7    2.41    5.74
   3  -9  -7    7.01    5.01
   3  -9  -7    3.68    4.97
   3   9   7    6.64    6.17
  -3   9  -7    2.82    6.05
   3  -9  -7    4.56    3.55
  -3  -9   7   -7.78    4.25
   3   9   7   -0.27    6.42
  -3  -9   7   -1.96    3.58
  -3  -9   7    1.53    5.44
  -3  -9  -8    7.85    3.83
  -3  -9  -8   -3.29    5.37
   3  -9   8   -9.85    6.38
   3  -9   8   -3.21    4.62
  -3  -9  -8    6.05    5.70
  -3   9   8    3.15    6.90
  -3  -9  -8   16.41    5.81
   3   9  -8    3.41    7.09
   3  -9   8   -5.63    5.41
   3  -9  -8   -1.25    5.97
  -3   9  -8    0.19    6.23
   3  -9  -8    7.37    3.78
  -3  -9   8   -1.23    5.32
   3  -9  -8    3.65    4.68
   3  -9  -8    5.84    5.25
  -3  -9   8   -9.80    3.49
   3   9   8   -2.78    6.42
  -3  -9   8   -3.95    5.99
   3   9   8  -11.39    6.92
   4   9   0   26.14    3.67
   4  -9   0   27.06    3.40
  -4   9   0   25.46    5.21
   4   9   0   29.02    4.87
   4  -9   0   24.41    2.65
  -4   9   1    6.18    4.68
   4  -9   1    1.83    2.36
  -4  -9  -1    0.64    2.70
   4  -9   1    3.84    2.44
  -4  -9  -1    3.09    2.41
  -4  -9  -1    5.39    2.61
   4   9  -1    3.72    2.81
   4   9  -1    3.40    2.19
   4   9  -1    4.41    4.07
   4  -9  -1    3.41    2.08
   4   9   1    4.01    3.87
   4  -9  -1    2.36    2.45
   4   9   1    2.46    3.51
  -4   9  -1    9.09    5.27
  -4   9  -1    5.85    2.37
   4   9  -2    4.81    2.64
  -4   9   2    7.73    4.12
  -4  -9  -2    5.88    2.89
   4   9  -2    4.76    4.36
   4  -9   2    5.12    3.45
  -4  -9  -2    4.35    3.20
  -4  -9  -2    6.56    2.73
   4  -9   2    6.93    2.86
   4   9  -2    5.68    3.17
   4  -9  -2    4.41    2.67
   4  -9  -2    3.67    2.08
   4  -9  -2    7.09    2.63
   4   9   2    8.09    3.90
   4   9   2    6.73    3.87
  -4   9  -2    5.67    4.76
  -4  -9   2    7.44    2.84
  -4  -9   2    6.68    2.51
   4   9  -3   12.03    5.15
  -4   9   3   10.58    4.53
   4  -9   3   11.50    3.43
  -4  -9  -3   14.43    4.08
  -4  -9  -3    8.74    3.23
   4   9  -3   11.48    3.81
   4  -9   3   15.28    4.10
  -4  -9  -3   10.45    3.50
   4   9   3   14.37    4.25
   4  -9  -3   13.73    2.83
   4  -9  -3   13.10    3.65
  -4   9  -3    6.66    5.02
   4  -9  -3   14.83    3.38
  -4  -9   3   10.75    3.23
   4   9   3   14.48    4.62
  -4  -9   3    9.85    2.91
   4   9  -4   -1.83    5.42
  -4  -9  -4    1.06    4.43
  -4   9   4    8.07    4.79
  -4  -9  -4    5.11    3.43
   4   9  -4    6.71    4.20
   4  -9   4    8.33    4.25
   4  -9   4    6.49    3.65
  -4  -9  -4    2.95    3.97
  -4  -9   4    8.36    4.21
  -4  -9   4    7.10    3.54
  -4  -9   4    5.55    3.08
   4  -9  -4   12.71    4.22
  -4   9  -4   -0.40    5.21
   4   9   4    9.39    4.96
   4   9   4    8.32    4.64
   4  -9  -4    7.23    3.85
   4  -9  -4   11.01    3.07
   4  -9   5   24.23    5.37
   4   9  -5   21.50    6.66
   4  -9   5   23.39    4.31
  -4  -9  -5   15.77    4.91
   4  -9   5   16.21    4.73
   4   9  -5   18.96    5.22
  -4  -9  -5   24.40    4.17
  -4  -9  -5   20.06    5.38
  -4   9   5   23.59    6.00
  -4  -9   5   18.49    4.19
   4  -9  -5   23.34    5.05
   4  -9  -5   25.39    4.77
   4  -9  -5   22.29    3.69
   4   9   5   26.01    5.82
  -4  -9   5   24.14    5.49
  -4   9  -5   18.25    6.52
   4   9   5   19.75    6.00
  -4  -9   5   16.75    3.71
   4   9  -6   11.40    5.09
  -4   9   6   -1.04    5.15
  -4  -9  -6   17.32    5.23
   4  -9   6    7.74    5.43
   4  -9   6    7.01    3.85
   4  -9   6    8.89    4.59
  -4  -9  -6   10.93    5.12
   4   9  -6   16.79    6.77
  -4  -9  -6   16.25    5.41
  -4  -9  -6   11.62    3.54
  -4   9   6    6.69    5.49
   4  -9  -6   17.22    4.89
   4  -9  -6   15.46    4.65
   4   9   6    6.14    5.95
   4   9   6    8.61    5.68
  -4  -9   6    6.79    3.41
  -4  -9   6    9.12    5.33
  -4   9  -6   15.04    6.11
   4  -9  -6   11.84    3.56
  -4  -9   6   13.04    4.47
  -4  -9  -7   15.40    5.92
  -4  -9  -7   10.19    5.40
  -4   9   7    4.94    6.30
  -4  -9  -7   14.81    3.97
   4  -9   7    0.71    4.19
  -4  -9  -7    9.00    5.49
   4  -9   7    4.76    6.30
   4  -9   7    2.29    4.97
  -4   9   7  -10.82    5.93
   4   9  -7   10.95    6.85
   4   9   7    4.51    6.04
   4   9   7    4.42    6.74
  -4  -9   7    6.33    5.71
   4  -9  -7   13.02    4.92
   4  -9  -7    8.77    3.65
  -4   9  -7   18.77    6.86
   4  -9  -7    8.65    5.10
  -4  -9   7    9.29    4.71
   4  -9  -7    4.40    6.02
  -4  -9   7    3.53    3.65
   4  -9   8   -3.57    4.73
  -4   9   8   -0.21    6.69
   4   9  -8   10.10    7.58
   4  -9   8   -1.47    5.65
  -4  -9  -8   17.93    5.89
  -4  -9  -8   14.83    3.98
  -4  -9  -8   21.27    6.24
  -4  -9  -8    1.07    5.83
  -4   9  -8    4.80    6.18
  -4  -9   8    0.01    5.67
   4  -9  -8    9.98    5.00
   4  -9  -8    2.74    6.52
  -4  -9   8    1.00    4.14
   4  -9  -8    0.41    4.79
   4   9   8   -3.87    7.20
   4   9   8    3.44    6.59
  -4  -9   8    7.06    6.26
   4  -9  -8    9.71    3.91
  -5   9   0   65.83    4.30
   5  -9   0   77.48    4.40
   5   9   0   72.82    3.62
   5   9   0   79.17    5.21
  -5   9   0   73.73    7.36
   5   9  -1   69.78    3.93
  -5  -9  -1   69.66    3.80
   5   9  -1   65.69    4.94
   5  -9   1   59.89    3.68
   5  -9   1   71.30    4.30
  -5   9   1   70.50    7.14
  -5  -9  -1   65.37    4.82
   5   9  -1   62.13    5.81
  -5   9  -1   62.25    7.66
   5  -9  -1   68.02    4.45
  -5   9  -1   63.88    4.04
   5  -9  -1   65.23    3.42
   5   9   1   62.33    5.65
   5   9  -2   86.83    6.73
  -5  -9  -2   88.16    4.41
  -5  -9  -2   91.37    5.15
  -5  -9  -2   91.81    5.86
   5   9  -2   75.51    5.44
  -5   9   2   79.89    6.80
   5   9  -2   87.12    4.76
   5  -9   2   82.67    4.54
   5  -9   2   84.93    5.34
   5  -9  -2   86.94    3.92
  -5  -9   2   82.68    4.74
   5   9   2   76.93    5.99
  -5   9  -2   81.51    7.98
   5   9   2   79.19    6.44
   5  -9  -2   83.34    5.12
  -5  -9  -3   81.76    5.68
  -5   9   3   75.43    6.95
   5  -9   3   83.38    6.08
   5  -9   3   78.79    5.00
  -5  -9  -3   83.08    6.31
   5   9  -3   82.75    7.52
   5   9  -3   76.81    6.00
  -5  -9  -3   82.35    4.74
   5   9   3   77.14    6.82
   5  -9  -3   79.38    5.46
  -5  -9   3   75.53    4.49
  -5  -9   3   76.70    5.15
   5  -9  -3   75.42    5.02
  -5   9  -3   79.33    8.09
   5   9   3   75.70    6.16
   5  -9  -3   75.09    4.03
  -5   9   4   27.11    5.96
   5   9  -4   28.72    6.80
   5   9  -4   32.13    5.38
   5  -9   4   28.10    4.20
  -5  -9  -4   33.42    4.84
   5  -9   4   34.96    5.15
  -5  -9  -4   29.71    5.53
  -5  -9  -4   32.09    4.19
  -5  -9   4   25.63    4.21
   5  -9  -4   33.11    3.74
   5   9   4   38.53    6.18
   5   9   4   31.40    5.52
  -5   9  -4   29.19    6.81
  -5  -9   4   27.90    3.86
   5  -9  -4   27.63    4.40
   5  -9  -4   34.80    4.80
   5  -9   5   13.88    3.92
  -5  -9  -5   14.45    3.69
   5  -9   5   13.98    5.06
  -5   9   5   14.47    5.46
   5  -9   5    9.03    4.43
  -5  -9  -5   16.43    5.41
  -5  -9  -5   15.54    4.94
   5   9  -5   15.09    5.03
   5   9  -5   24.18    6.67
  -5  -9   5   22.03    5.11
   5  -9  -5   17.15    4.42
   5  -9  -5   21.38    4.88
  -5   9  -5   19.44    6.46
   5   9   5   20.99    6.02
  -5  -9   5   18.57    3.57
   5  -9  -5   17.36    3.57
   5   9   5   17.55    5.35
  -5  -9   5   14.37    4.09
  -5  -9  -6   17.54    5.34
  -5  -9  -6   24.57    6.08
  -5  -9  -6   18.50    4.13
   5   9  -6   13.97    5.47
  -5   9   6   18.07    6.37
   5  -9   6   23.96    6.16
  -5  -9  -6   23.18    5.59
   5   9  -6   24.04    7.02
   5  -9   6   14.29    4.16
   5  -9   6   10.91    4.65
   5  -9  -6   23.27    5.17
   5  -9  -6   26.06    4.01
   5   9   6   18.03    6.07
  -5   9  -6   26.34    6.70
  -5  -9   6   12.94    3.73
   5   9   6   14.19    6.30
  -5  -9   6   13.47    4.50
   5  -9  -6   21.07    5.17
  -5  -9   6   22.59    5.96
   5  -9   7   -4.17    4.77
  -5  -9  -7    4.17    5.19
   5   9  -7    1.47    5.55
  -5  -9  -7   15.68    5.99
   5  -9   7   -2.65    4.23
  -5  -9  -7    7.22    3.68
  -5   9   7    2.52    6.21
   5   9  -7    8.28    6.96
  -5  -9  -7   17.30    5.94
  -5   9   7   -7.69    5.96
   5  -9   7   -3.96    5.77
  -5   9  -7   14.46    6.69
   5  -9  -7    5.45    3.50
  -5  -9   7   -0.10    3.76
  -5  -9   7   -0.65    4.71
   5  -9  -7    1.85    4.53
   5   9   7   -2.77    6.36
  -5  -9   7    4.08    5.48
   5  -9  -7    8.08    5.12
   5  -9  -7    3.43    5.98
   5   9   7    5.24    5.75
   6   9   0    8.92    2.55
   6   9   0    7.17    3.53
  -6   9   0   11.06    5.44
   6   9   0   11.68    2.29
  -6   9   0    7.00    2.76
   6  -9   0   13.12    3.07
   6   9  -1   18.06    3.93
   6  -9   1   25.88    3.03
   6   9  -1   25.70    3.11
  -6  -9  -1   19.97    3.48
   6  -9   1   23.92    3.40
  -6   9   1   28.47    6.06
  -6  -9  -1   22.86    3.93
   6   9   1   23.55    2.83
   6   9   1   24.14    4.34
   6  -9  -1   23.94    3.53
  -6   9  -1   24.41    3.34
   6   9   1   24.28    2.66
  -6   9  -1   27.17    6.61
  -6   9   2    5.12    4.67
   6   9  -2    4.51    4.31
  -6  -9  -2    1.94    3.70
   6   9  -2    1.67    2.94
   6   9  -2    4.29    3.53
   6  -9   2    2.20    3.73
  -6  -9  -2    1.84    3.32
  -6  -9  -2   -1.69    2.97
   6  -9   2   -1.39    2.95
  -6   9  -2    5.23    2.97
   6  -9  -2    3.96    2.40
   6   9   2    6.05    4.52
   6  -9  -2    2.97    3.02
  -6   9  -2    0.72    5.39
   6  -9   3    7.18    4.15
  -6   9   3    6.75    4.72
  -6  -9  -3    5.47    4.39
   6  -9   3    4.37    3.35
   6   9  -3    7.46    3.52
   6   9  -3    4.89    3.79
   6   9  -3    9.84    5.44
  -6  -9  -3    8.69    3.87
  -6  -9  -3    8.51    3.45
  -6   9  -3    4.15    5.65
   6   9   3   10.94    4.88
  -6  -9   3    6.14    3.26
   6  -9  -3    7.68    3.60
   6  -9  -3   10.72    2.76
  -6  -9  -4   11.42    4.66
   6   9  -4   17.13    6.41
  -6  -9  -4   12.22    5.34
   6   9  -4   13.18    4.59
  -6  -9  -4   10.42    3.64
   6  -9   4   12.38    3.80
  -6   9   4   12.28    5.55
   6  -9   4    6.62    4.36
   6  -9  -4   13.63    3.23
   6  -9  -4   10.53    4.32
  -6   9  -4   15.74    6.48
   6   9   4   12.30    5.70
   6  -9  -4   10.82    4.07
  -6  -9   4   13.71    3.76
  -6  -9   4    9.98    3.18
   6   9   4   15.19    4.86
  -6  -9  -5    5.47    4.96
   6  -9   5   -1.36    4.00
   6   9  -5    1.79    5.90
  -6  -9  -5    5.86    3.39
  -6  -9  -5    7.86    4.75
   6   9  -5    5.63    4.15
  -6   9   5    4.69    4.88
   6  -9   5    3.98    3.42
  -6  -9   5    2.96    3.53
  -6   9  -5    7.28    5.84
  -6  -9   5    2.77    3.19
   6  -9  -5   10.62    4.29
   6  -9  -5    5.84    3.86
   6   9   5    5.95    5.40
   6  -9  -5    7.69    3.05
  -6  -9   5    4.26    4.38
   6   9   5    2.79    4.52
  -6   9   6    0.11    5.21
   6   9  -6    9.39    6.45
   6  -9   6    1.19    3.72
  -6  -9  -6   11.27    3.69
   6   9  -6    5.95    4.98
  -6  -9  -6   12.43    5.88
   6  -9   6   -0.04    5.42
   6  -9   6    0.66    4.31
  -6  -9  -6    0.44    4.58
  -6  -9  -6   14.78    5.79
  -6   9  -6   10.11    6.06
   6  -9  -6    4.41    4.53
  -6  -9   6    6.42    3.49
   6   9   6    3.61    6.09
  -6  -9   6    3.23    4.18
  -6  -9   6    6.93    5.25
   6  -9  -6    9.26    3.39
   6   9   6    8.20    5.32
   6  -9  -6    7.53    4.33
  -6   9   7   -0.53    5.89
  -6  -9  -7    4.54    5.87
   6  -9   7  -10.26    6.07
   6  -9   7    3.93    4.27
   6   9  -7    3.31    6.68
  -6  -9  -7    6.20    5.64
  -6  -9  -7    1.08    5.18
   6   9  -7    0.28    5.39
   6  -9   7   -4.67    4.76
  -6  -9  -7    8.04    3.95
  -6  -9   7   -5.25    3.52
  -6   9  -7    7.38    6.32
   6  -9  -7    6.58    4.99
   6  -9  -7    2.93    3.38
  -6  -9   7   -1.11    5.38
   6   9   7   -1.79    6.53
  -6  -9   7   -4.86    4.50
   6  -9  -7    5.05    4.47
   6   9   7    3.28    5.75
   7   9   0  100.53    6.28
  -7   9   0  105.24    5.38
   7  -9   0  103.79    5.52
   7   9   0  105.72    4.19
  -7   9   0  103.64    8.86
   7   9   0  104.86    4.64
  -7  -9  -1   94.80    4.76
  -7  -9  -1   99.19    6.25
   7  -9   1   90.13    4.40
  -7   9   1   93.40    5.36
   7   9  -1   99.22    4.81
   7   9  -1   91.07    6.13
  -7   9   1   91.25    8.15
  -7  -9  -1   98.02    5.45
   7  -9   1   97.70    5.37
  -7   9  -1  100.85    5.29
   7   9   1  103.33    4.57
   7  -9  -1  101.64    5.47
  -7   9  -1   94.43    9.12
   7   9   1   97.89    3.95
   7   9   1   89.98    6.43
  -7  -9  -2  105.88    6.77
   7  -9   2  104.29    5.87
  -7  -9  -2  101.71    5.13
  -7   9   2  101.86    7.89
   7   9  -2   89.95    6.32
   7   9  -2  103.47    5.38
   7  -9   2   96.54    4.98
  -7  -9  -2  106.75    6.07
  -7   9  -2  107.19    5.58
  -7   9  -2   99.77    9.22
   7  -9  -2  103.98    5.92
   7   9   2  101.15    3.93
   7   9   2  108.53    7.62
   7  -9  -2   92.31    4.44
   7   9  -3   55.46    5.26
  -7   9   3   55.39    7.20
   7  -9   3   60.70    4.96
  -7  -9  -3   67.64    6.01
   7   9  -3   66.67    7.26
  -7  -9  -3   62.33    4.73
   7   9  -3   55.09    6.06
   7  -9   3   66.27    6.16
  -7  -9  -3   66.82    6.82
  -7  -9   3   60.57    5.08
  -7   9  -3   63.19    5.28
   7  -9  -3   55.17    3.97
  -7   9  -3   59.47    8.46
   7  -9  -3   58.03    5.51
   7   9   3   59.17    7.06
  -7  -9  -4   34.86    6.04
   7   9  -4   31.90    5.47
   7  -9   4   31.72    5.27
   7  -9   4   33.45    4.42
  -7  -9  -4   34.21    4.51
   7   9  -4   37.37    7.14
  -7  -9  -4   26.63    5.28
  -7   9   4   30.80    6.28
   7  -9  -4   36.16    5.09
  -7  -9   4   23.28    3.57
   7   9   4   33.89    6.31
  -7   9  -4   37.57    7.42
   7  -9  -4   34.99    3.80
  -7  -9   4   30.91    4.44
   7  -9   5   39.23    6.01
  -7  -9  -5   46.29    6.05
   7  -9   5   33.34    4.49
   7   9  -5   46.85    7.51
   7  -9   5   30.00    5.11
  -7   9   5   32.32    6.55
  -7  -9  -5   40.31    4.43
  -7  -9  -5   51.77    6.81
   7   9  -5   40.04    6.05
  -7  -9   5   37.19    4.31
   7  -9  -5   46.05    5.59
   7   9   5   34.63    5.85
  -7  -9   5   42.24    5.06
  -7  -9   5   33.23    5.59
   7   9   5   37.54    6.68
  -7   9  -5   39.86    7.27
   7  -9  -5   39.24    4.01
   7  -9  -5   46.40    5.16
  -7  -9  -6   17.80    4.12
   7  -9   6   11.36    6.00
   7   9  -6   21.25    7.12
   7   9  -6   15.44    5.67
   7  -9   6   14.27    5.20
  -7  -9  -6   33.89    6.30
   7  -9   6   11.26    4.24
  -7   9   6   13.16    6.15
  -7  -9  -6   28.21    6.59
   7  -9  -6   16.60    3.89
  -7  -9   6   17.37    3.81
   7   9   6   19.93    5.87
  -7  -9   6   12.37    4.56
   7  -9  -6   21.58    4.91
   7  -9  -6   21.73    5.21
   7   9   6   15.78    6.60
  -7   9  -6   28.03    7.22
  -7  -9   6   21.04    5.97
   7  -9   7    1.52    5.18
   7   9  -7    4.42    6.54
   7  -9   7    3.02    4.37
  -7  -9  -7   12.14    6.16
  -7  -9  -7   10.76    3.92
   7   9  -7    6.28    5.75
  -7  -9  -7   15.11    6.24
  -7   9   7   -2.21    5.82
  -7  -9  -7   -0.85    5.25
   7   9   7    2.39    5.83
  -7  -9   7    5.52    5.72
  -7  -9   7    4.14    4.78
  -7  -9   7    3.59    3.66
   7  -9  -7   12.43    4.72
   7  -9  -7    5.13    3.68
  -7   9  -7    5.50    6.20
   7  -9  -7    4.71    4.81
   7   9   7    3.58    6.90
   8   9   0   13.79    3.08
   8   9   0    9.63    2.67
   8   9   0    4.78    4.06
  -8   9   0    7.28    3.35
  -8   9   0   19.17    6.71
   8  -9   0   14.99    3.75
  -8   9   1   12.74    3.46
  -8  -9  -1   11.48    4.35
   8   9  -1   10.49    3.28
   8   9  -1   12.44    4.28
  -8  -9  -1   10.74    3.71
  -8   9   1   14.81    6.37
  -8  -9  -1   12.09    3.92
   8  -9   1   11.52    2.98
   8   9   1    7.74    4.16
  -8   9  -1   14.38    3.66
   8  -9  -1   11.41    3.75
   8   9   1   10.80    3.04
   8   9   1   10.82    2.67
  -8   9  -1   12.65    6.79
  -8   9   2    3.95    3.36
  -8  -9  -2    1.94    3.84
  -8  -9  -2    5.15    4.61
  -8   9   2    7.18    5.46
   8   9  -2   -0.07    3.63
   8  -9   2   -1.77    3.27
  -8  -9  -2    9.01    3.68
   8   9  -2    3.99    3.52
   8  -9   2    2.31    3.87
   8  -9  -2    3.33    3.63
   8   9   2    2.16    5.15
  -8   9  -2    3.60    6.24
  -8   9  -2    3.76    3.57
   8   9   2    8.14    2.91
   8   9   2    2.00    2.35
   8  -9   3   10.87    4.57
  -8  -9  -3    3.71    3.83
   8   9  -3    1.09    3.85
  -8   9   3    6.33    5.54
  -8  -9  -3    4.73    4.53
  -8  -9  -3   11.85    5.28
   8  -9   3    6.85    3.83
   8   9  -3    9.49    5.47
   8   9  -3    8.60    4.12
   8  -9  -3    7.19    4.11
  -8   9  -3    3.56    6.05
   8   9   3    3.72    3.15
   8  -9  -3    2.75    2.92
   8   9   3    6.26    2.55
  -8   9  -3    6.05    3.89
  -8  -9   3    0.98    3.56
   8   9   3    3.06    5.23
  -8  -9  -4    7.50    4.86
   8  -9   4    7.87    3.98
   8  -9   4    1.30    4.29
  -8  -9  -4    5.99    5.22
  -8   9   4    1.99    4.97
   8   9  -4   13.52    4.64
   8   9  -4    8.80    5.69
  -8  -9  -4    3.12    3.59
  -8  -9   4    4.81    3.56
   8   9   4    4.94    2.46
   8   9   4    6.20    5.49
  -8   9  -4    8.09    6.04
   8  -9  -4    4.64    3.02
   8   9   4    6.97    3.09
   8  -9  -4    4.16    4.17
  -8   9  -4    3.60    4.00
  -8   9   5    6.85    5.57
   8  -9   5   10.40    4.20
   8  -9   5    7.76    4.51
  -8  -9  -5   13.55    5.32
  -8  -9  -5   17.38    3.97
   8   9  -5    4.40    4.73
  -8  -9  -5   12.75    5.59
   8   9  -5   12.40    6.19
  -8  -9   5    8.71    3.86
   8  -9  -5   10.91    4.56
   8   9   5    5.01    5.59
   8   9   5    7.39    3.39
  -8  -9   5    5.44    3.08
   8  -9  -5    8.40    3.43
  -8   9  -5   16.48    6.21
  -8  -9   5   14.22    4.93
   8  -9   6    4.79    3.91
  -8   9   6    2.15    5.60
   8   9  -6    3.28    5.00
   8  -9   6   -9.74    5.42
  -8  -9  -6   15.73    6.24
   8  -9   6   -3.59    4.67
  -8  -9  -6   14.41    5.99
   8   9  -6    6.54    6.28
  -8  -9  -6    6.29    3.93
  -8  -9   6    5.31    3.47
   8   9   6   -4.36    6.13
   8  -9  -6    9.24    4.87
   8  -9  -6    1.83    3.40
  -8  -9   6    3.71    5.04
   8   9   6    7.51    3.53
  -8  -9   6    3.64    4.00
  -8   9  -6   12.52    6.37
   8   9  -7    7.08    5.63
   8   9  -7    9.25    6.93
   8  -9   7    6.10    4.74
  -8  -9  -7    7.74    3.82
  -8   9   7   -2.06    5.77
   8  -9   7   -6.53    4.75
  -8  -9  -7   10.83    6.31
  -8  -9  -7   12.49    5.86
   8  -9  -7    3.35    3.58
  -8  -9   7   -2.31    4.63
  -8   9  -7    9.26    6.33
   8  -9  -7    1.48    4.66
   8   9   7   -3.63    6.60
  -8  -9   7   -2.04    3.44
  -8  -9   7   -2.65    5.40
   9   9   0   64.22    4.04
  -9   9   0   61.21    9.09
   9   9   0   52.62    6.17
  -9   9   0   59.72    5.20
   9   9   0   62.63    4.62
   9  -9   0   68.44    5.62
  -9   9   1   64.82    5.51
   9   9  -1   71.54    5.00
   9   9  -1   64.19    6.34
  -9   9   1   68.67    8.35
  -9  -9  -1   78.11    6.55
  -9  -9  -1   78.45    5.20
   9   9  -1   69.16    4.40
   9  -9   1   69.24    4.41
  -9   9  -1   77.94    5.71
   9  -9  -1   75.38    5.81
   9   9   1   77.99    4.76
   9   9   1   66.00    6.70
   9   9   1   69.78    4.15
  -9   9  -1   74.43    9.21
   9  -9   2   52.34    5.54
  -9  -9  -2   51.91    6.32
   9  -9   2   48.46    4.58
  -9  -9  -2   54.09    5.86
   9   9  -2   46.32    5.97
  -9   9   2   50.84    7.87
  -9   9   2   46.65    5.24
  -9  -9  -2   49.15    5.01
   9   9  -2   48.21    5.02
   9   9   2   50.36    7.24
   9   9   2   48.28    4.43
   9   9   2   49.46    3.75
  -9   9  -2   54.34    5.59
  -9   9  -2   53.23    8.88
   9  -9  -2   53.32    5.63
  -9  -9  -3   28.08    6.06
  -9   9   3   24.58    6.55
  -9  -9  -3   25.94    4.48
   9  -9   3   19.19    4.83
   9   9  -3   26.12    4.65
   9   9  -3   21.69    4.80
  -9  -9  -3   25.25    5.38
   9  -9   3   25.41    4.33
  -9   9  -3   24.23    7.22
  -9   9  -3   24.07    4.67
   9   9   3   22.22    3.04
   9   9   3   18.95    5.96
   9   9   3   25.13    3.78
   9  -9  -3   25.02    4.88
   9   9  -4   22.14    4.73
   9  -9   4   23.24    4.87
  -9   9   4   21.14    6.09
   9   9  -4   23.93    5.09
  -9  -9  -4   35.00    5.86
   9   9  -4   29.46    6.03
  -9  -9  -4   34.00    6.06
  -9  -9  -4   23.42    4.31
   9  -9   4   28.07    4.47
   9  -9  -4   24.46    5.08
   9   9   4   24.48    3.66
   9   9   4   27.98    6.02
  -9   9  -4   39.05    7.20
  -9   9  -4   27.65    4.78
  -9  -9   4   22.85    4.13
   9   9   4   27.70    3.10
   9   9  -5   43.99    7.62
   9  -9   5   32.95    4.92
   9  -9   5   27.64    5.59
  -9  -9  -5   31.93    4.52
  -9   9   5   29.17    6.90
  -9  -9  -5   36.42    6.68
   9   9  -5   33.57    5.76
  -9  -9  -5   42.85    6.79
  -9  -9   5   31.77    5.79
   9   9   5   31.57    4.04
   9   9   5   35.06    6.99
  -9  -9   5   28.04    4.81
  -9  -9   5   23.85    3.71
   9  -9  -5   36.41    4.28
  -9   9  -5   33.24    7.16
   9  -9  -5   38.17    5.59
  -9  -9  -6   14.57    6.43
  -9  -9  -6   24.66    6.57
  -9   9   6    7.39    6.38
   9  -9   6   -2.01    6.50
   9  -9   6    7.89    4.90
   9  -9   6   11.63    4.71
   9   9  -6   17.88    5.86
  -9  -9  -6   12.34    4.21
   9   9  -6   19.03    7.08
   9   9   6    6.40    6.73
  -9  -9   6    8.16    5.36
  -9  -9   6   13.96    5.06
   9  -9  -6   18.72    3.96
   9   9   6   18.07    3.89
  -9  -9   6    9.57    3.70
  -9   9  -6   17.16    6.50
   9  -9  -6   15.88    5.09
   9   9  -7    8.32    6.87
   9  -9   7   -1.77    4.58
  -9   9   7   -1.19    6.20
  -9  -9  -7   13.11    4.45
  -9  -9  -7   16.02    6.33
   9  -9   7    5.10    5.03
   9   9  -7    7.91    5.91
  -9  -9  -7   12.99    6.46
   9  -9  -7    2.23    3.79
  -9  -9   7    0.24    4.70
   9   9   7   -0.50    6.94
  -9   9  -7   13.24    6.32
  -9  -9   7    6.09    3.84
   9  -9  -7    3.70    4.75
  -9  -9   7   -2.49    5.12
 -10   9   0    7.57    3.77
  10   9   0    6.40    3.31
 -10   9   0    6.85    7.19
  10   9   0    6.61    3.06
 -10  -9   0   11.99    4.82
  10   9   0    1.01    4.20
  10  -9   0    8.39    4.29
 -10  -9  -1   11.90    4.38
 -10  -9  -1    7.66    4.36
  10   9  -1    3.55    3.18
 -10  -9  -1    5.99    5.00
  10   9  -1    3.39    4.38
 -10   9   1    5.24    3.69
  10  -9   1    2.25    3.14
  10   9  -1    3.20    3.49
 -10   9   1    7.09    6.57
 -10   9  -1    4.92    4.04
  10   9   1    0.83    3.18
  10   9   1    2.07    4.30
 -10   9  -1    6.68    7.21
  10  -9  -1    6.68    4.20
  10   9   1    4.72    3.00
  10  -9   2   13.38    4.43
 -10  -9  -2   17.28    5.75
 -10   9   2   15.61    4.14
 -10  -9  -2   24.25    4.74
 -10  -9  -2   15.39    4.97
 -10   9   2   18.59    6.93
  10  -9   2   14.53    3.77
  10   9  -2   16.60    4.69
  10   9  -2   20.83    4.20
  10  -9  -2   14.27    4.52
 -10   9  -2   19.94    4.54
  10   9   2   16.65    3.64
  10   9   2   16.71    3.13
  10   9   2   14.42    5.81
 -10   9  -2   15.09    7.16
 -10   9   3    8.74    3.85
  10   9  -3    3.34    3.96
 -10  -9  -3    6.02    5.42
  10   9  -3    3.41    3.89
 -10   9   3    2.94    5.65
 -10  -9  -3    9.60    4.89
  10  -9   3    3.40    4.36
 -10  -9  -3    2.43    4.03
  10  -9   3    4.23    3.68
  10   9   3    1.57    5.26
  10  -9  -3    7.68    4.20
  10   9   3    2.05    2.57
  10   9   3    1.08    3.24
 -10   9  -3    3.81    4.19
 -10   9  -3    7.01    6.09
  10   9  -4    8.86    4.44
  10  -9   4    3.19    4.36
 -10  -9  -4   10.88    5.79
  10   9  -4    7.27    4.49
  10   9  -4   11.19    5.30
  10  -9   4    9.11    4.03
 -10  -9  -4   10.66    5.44
 -10   9   4    8.40    5.68
 -10  -9  -4   10.37    4.07
  10  -9  -4    5.97    4.58
  10   9   4    8.74    5.61
 -10   9  -4   15.97    6.07
  10   9   4    9.25    2.75
  10   9   4   11.08    3.47
 -10  -9   4    4.18    3.44
 -10   9  -4    4.58    4.33
 -10  -9  -5   11.44    6.26
 -10  -9  -5   11.49    6.10
 -10   9   5    0.88    5.52
  10  -9   5    7.30    4.67
 -10  -9  -5   -1.19    3.87
  10   9  -5    8.31    5.91
  10   9  -5    6.81    5.15
  10  -9   5    5.39    4.38
 -10   9  -5    1.77    4.46
  10   9   5    1.89    5.91
  10  -9  -5    4.90    4.72
 -10   9  -5   13.94    6.09
  10   9   5    4.30    3.44
 -10  -9   5    2.27    4.17
  10   9   5    4.09    2.75
 -10  -9   5    4.56    2.77
 -10  -9  -6   11.32    6.33
 -10  -9  -6   14.80    6.47
  10   9  -6    7.20    6.07
  10  -9   6    0.36    4.52
 -10  -9  -6    4.02    4.11
  10  -9   6    6.00    4.55
  10   9  -6   12.05    5.67
 -10   9   6   -3.90    5.94
  10  -9  -6    4.17    4.73
 -10  -9   6    2.71    4.48
 -10  -9   6    7.93    3.55
 -10   9  -6   17.01    6.33
  10   9   6    0.37    6.32
 -10  -9   6    3.21    5.19
  10   9   6    3.51    3.49
  11   9   0   31.53    5.38
  11   9   0   30.81    4.23
  11  -9   0   31.64    3.52
 -11  -9   0   30.75    5.70
 -11   9   0   25.35    8.29
  11   9   0   30.92    3.83
 -11   9   0   30.62    4.89
  11   9  -1   22.50    3.82
 -11   9   1   24.64    7.35
 -11  -9  -1   25.95    4.81
  11   9  -1   21.30    4.23
 -11  -9  -1   27.93    5.24
  11  -9   1   21.06    3.61
 -11   9   1   16.72    4.21
 -11  -9  -1   22.31    5.77
  11   9  -1   17.96    5.06
  11  -9  -1   22.16    4.96
  11   9   1   22.55    3.93
  11   9   1   15.23    4.99
  11   9   1   18.97    3.46
 -11   9  -1   22.98    7.71
 -11   9  -1   24.49    4.68
 -11  -9  -2   14.76    5.73
  11  -9   2   12.93    4.12
  11   9  -2   18.70    4.13
  11   9  -2   18.57    4.70
 -11   9   2   13.28    4.13
 -11   9   2   13.07    6.67
 -11  -9  -2   18.27    5.01
 -11  -9  -2   23.11    4.85
  11  -9   2   11.93    3.63
 -11   9  -2   20.82    6.95
  11  -9  -2   20.83    4.88
  11   9   2    9.21    2.97
 -11   9  -2   14.05    4.55
  11   9   2   13.20    3.52
  11   9   2   16.23    5.70
 -11  -9  -3   23.29    4.57
  11   9  -3   26.76    5.10
  11  -9   3   27.05    4.14
 -11  -9  -3   26.59    5.75
 -11   9   3   22.55    6.56
 -11  -9  -3   25.86    6.18
 -11   9   3   28.44    4.65
  11  -9   3   26.06    4.78
  11   9  -3   32.50    4.94
 -11   9  -3   26.05    4.86
 -11   9  -3   34.88    6.89
  11   9   3   26.20    3.39
  11   9   3   26.74    3.98
  11   9   3   22.47    6.00
  11  -9  -3   26.35    5.10
 -11   9   4   15.15    4.56
 -11   9   4    8.54    6.15
 -11  -9  -4   21.42    6.27
 -11  -9  -4   18.59    4.37
  11   9  -4   12.84    4.77
 -11  -9  -4   14.90    5.94
  11  -9   4   13.18    5.12
  11   9  -4   17.15    5.04
  11  -9   4   12.38    4.23
  11   9   4   13.74    5.81
  11   9   4   14.60    3.08
 -11  -9   4   13.90    4.04
  11   9   4   14.36    3.82
  11  -9  -4   15.10    5.13
 -11   9  -4   25.67    6.73
 -11   9  -4   11.80    4.70
 -11   9   5   -0.10    5.83
  11   9  -5    9.10    5.23
  11  -9   5    0.07    4.13
 -11   9   5    5.84    4.99
 -11  -9  -5   16.13    6.63
  11   9  -5    3.10    8.50
 -11  -9  -5   17.32    6.46
 -11  -9  -5    6.76    4.36
  11  -9   5    2.17    5.25
 -11   9  -5   11.26    5.85
 -11  -9   5    5.55    4.08
  11   9   5    7.94    3.51
  11  -9  -5   -0.34    4.85
 -11   9  -5    3.05    4.01
  11   9   5    8.77    2.92
  11   9   5    7.44    6.16
 -11   9  -5    2.11    4.81
  11   9  -6    9.79    5.76
 -11  -9  -6    8.87    4.13
  11   9  -6    4.03    7.89
 -11  -9  -6   16.65    6.66
  11  -9   6   -0.27    4.33
  11  -9   6   -4.14    4.72
 -11   9   6   -2.55    5.99
 -11  -9  -6    6.78    6.31
 -11   9  -6   13.75    6.26
  11   9   6    5.95    6.61
  11  -9  -6   -3.00    4.79
  11   9   6   11.79    3.90
 -11  -9   6    7.11    4.74
 -11  -9   6    2.37    3.15
 -11  -9   6    0.27    5.01
 -12   9   0   -1.10    7.15
  12  -9   0    6.66    2.97
  12   9   0    5.20    3.02
  12   9   0    7.56    3.65
  12   9   0    4.90    4.30
 -12   9   0    1.20    3.99
 -12  -9   0    2.65    4.96
 -12   9   1   -3.23    6.36
  12   9  -1    4.49    4.34
 -12  -9  -1    2.02    5.29
 -12  -9  -1   -0.71    4.21
 -12  -9  -1   -1.34    4.44
  12   9  -1    5.52    3.22
  12  -9   1    4.79    3.08
 -12   9   1    2.74    3.73
  12   9  -1    5.50    3.68
 -12   9  -1    5.16    4.14
  12   9   1    5.79    3.50
  12   9   1    2.33    4.49
  12  -9  -1    2.77    4.43
  12   9   1    7.50    3.04
 -12   9  -1    7.31    6.62
  12  -9   2   13.20    3.49
 -12   9   2    9.26    6.62
 -12   9   2   13.24    4.21
  12  -9   2   16.58    4.10
  12   9  -2   16.29    4.19
  12   9  -2   15.89    4.86
 -12  -9  -2   18.51    4.81
 -12  -9  -2   14.16    5.83
 -12  -9  -2   24.24    5.40
  12  -9  -2   18.00    5.01
 -12   9  -2   16.45    4.71
 -12   9  -2   22.66    6.48
  12   9   2   11.66    5.44
  12   9   2   13.96    3.17
  12   9   2   20.17    3.78
  12   9  -3    8.76    4.42
 -12  -9  -3    5.26    5.27
 -12   9   3    3.93    4.03
  12  -9   3    1.20    4.25
  12   9  -3    5.81    4.40
  12  -9   3   11.02    3.76
 -12  -9  -3    9.35    5.75
 -12  -9  -3   -0.02    4.12
 -12   9   3    0.13    5.91
 -12   9  -3   17.07    6.02
  12   9   3    0.73    5.35
  12  -9  -3    4.18    4.60
 -12   9  -3    6.84    4.43
  12   9   3    6.75    2.91
  12   9   3    3.74    3.49
 -12  -9  -4    0.53    5.80
 -12   9   4    1.66    4.21
  12  -9   4    3.20    4.65
 -12  -9  -4    8.06    4.51
 -12   9   4   -2.38    5.93
  12  -9   4    4.25    3.93
  12   9  -4    4.39    5.03
  12   9  -4    8.54    5.02
 -12  -9  -4    2.40    5.97
 -12   9  -4    3.26    4.75
 -12  -9   4    3.92    3.92
  12  -9  -4    3.37    4.74
 -12   9  -4   10.83    5.75
  12   9   4    6.86    2.95
  12   9   4    0.75    5.90
  12   9   4    4.10    3.76
 -12   9   5    5.76    4.70
 -12  -9  -5    3.62    6.51
  12  -9   5   -0.61    4.32
 -12  -9  -5    3.18    4.39
  12  -9   5    5.06    5.43
  12   9  -5   12.05    5.59
 -12   9   5   -2.27    6.08
 -12  -9  -5   11.31    6.69
 -12   9  -5   16.08    5.91
  12   9   5    0.86    6.20
  12   9   5    0.21    2.80
  12  -9  -5   -2.64    4.68
 -12  -9   5    1.62    4.30
  12   9   5    4.20    3.60
 -12   9  -5   -5.93    4.70
  12  -9   6   -3.05    4.26
  12  -9   6    2.90    6.00
 -12  -9  -6    6.89    6.85
 -12  -9  -6    7.20    4.51
  12   9  -6    1.39    5.42
 -12  -9  -6   12.43    6.90
 -12   9   6   -2.58    6.13
 -12   9   6   11.88    5.27
  12   9   6   -0.94    6.38
 -12  -9   6    1.98    4.77
  12   9   6    7.99    3.90
 -12   9  -6    9.68    5.78
  12  -9  -6    3.69    4.93
 -12  -9   6    9.19    5.78
 -12  -9   6    4.05    3.15
  13   9   0   16.33    4.87
  13  -9   0   14.78    3.11
 -13  -9   0    9.69    5.15
 -13   9   0    7.77    4.32
  13   9   0   12.83    3.71
 -13  -9   0   14.82    4.40
 -13   9   0    4.74    7.17
  13   9   0    8.72    3.26
 -13  -9  -1    3.22    4.41
 -13   9   1    2.14    4.04
  13  -9   1    4.04    3.18
 -13  -9  -1    4.55    5.34
  13   9  -1   10.40    3.86
 -13  -9  -1    5.42    4.90
  13   9  -1    8.43    4.70
  13   9  -1    3.14    3.27
 -13   9   1   -8.46    6.58
 -13  -9   1    5.13    4.08
  13   9   1    6.91    5.11
  13   9   1    9.54    3.67
  13   9   1    5.77    3.11
 -13   9  -1    6.40    6.40
 -13   9  -1    0.97    4.20
 -13   9   2   -0.10    3.84
  13   9  -2   11.40    4.74
 -13  -9  -2    8.37    4.71
 -13  -9  -2    7.07    5.27
 -13   9   2   -2.30    6.42
 -13  -9  -2   12.77    5.92
  13  -9   2    3.71    3.34
  13  -9   2   11.79    4.04
  13   9  -2    8.08    4.12
  13  -9  -2    1.07    4.70
  13   9   2    6.30    5.26
 -13   9  -2    6.55    4.54
 -13   9  -2   22.85    6.49
  13   9   2    7.28    3.50
  13   9   2    7.20    3.10
 -13  -9  -3   11.64    6.16
  13   9  -3   10.27    4.81
  13  -9   3    9.68    4.44
  13   9  -3    7.86    4.69
 -13   9   3    7.34    4.57
 -13   9   3    0.58    6.20
 -13  -9  -3   11.02    6.10
 -13  -9  -3   14.74    4.83
  13  -9   3    7.26    3.86
  13   9   3    9.71    6.22
  13   9   3    9.07    3.16
 -13   9  -3   14.73    6.05
  13   9   3    9.68    3.71
  13  -9  -3    2.49    4.92
 -13   9  -3    6.40    4.64
 -13   9   4   -1.64    6.23
 -13  -9  -4    6.17    6.29
  13  -9   4   -0.54    4.77
  13   9  -4    2.77    4.87
 -13  -9  -4   12.03    6.52
 -13   9   4    5.31    4.63
  13   9  -4    0.97    4.85
  13  -9   4    6.29    4.23
 -13  -9  -4    4.43    4.40
  13   9   4    5.44    6.29
  13   9   4    6.52    2.99
  13  -9  -4    7.85    5.09
 -13   9  -4   11.12    5.68
 -13   9  -4   -0.34    4.82
  13   9   4    8.23    3.77
 -13  -9   4    6.24    3.93
 -13   9   5  -10.14    5.94
 -13  -9  -5    7.71    6.44
  13   9  -5   -1.04    5.16
 -13  -9  -5    2.09    4.55
  13  -9   5    2.63    4.17
 -13   9   5    5.29    4.99
 -13  -9  -5    8.93    6.81
  13   9  -5   14.53    5.70
  13  -9   5   -0.93    5.17
 -13   9  -5    1.52    5.05
  13   9   5    5.22    3.01
 -13   9  -5   -1.52    4.26
 -13   9  -5   12.77    5.52
  13   9   5   -0.79    6.11
  13  -9  -5   -6.46    4.82
  13   9   5    7.06    3.87
 -13  -9   5    7.41    4.35
 -14  -9   0    2.31    5.18
 -14   9   0   -4.12    7.04
  14   9   0   -0.50    3.66
 -14  -9   0    5.35    4.72
  14  -9   0    8.07    2.97
 -14  -9   0   -2.15    4.43
  14   9   0    3.61    3.23
  14   9   0    3.85    4.39
 -14   9   0    3.96    4.27
  14  -9   1    8.38    3.34
 -14   9   1    3.40    4.32
 -14  -9  -1    5.37    5.17
  14   9  -1   14.31    4.26
 -14  -9  -1    2.84    4.42
  14   9  -1    6.24    3.56
  14   9  -1   13.34    4.85
 -14  -9  -1    5.63    5.67
 -14   9   1   -3.17    7.02
  14   9   1    8.24    3.92
 -14  -9   1    0.65    4.38
 -14  -9   1    1.55    4.43
 -14   9  -1   13.85    6.83
  14   9   1    4.31    3.16
  14   9   1    7.34    5.17
 -14   9  -1    4.35    4.46
  14   9  -2    8.68    3.68
 -14   9   2  -12.21    6.35
  14   9  -2    6.32    4.92
  14   9  -2    4.37    4.31
  14  -9   2    4.26    3.95
 -14  -9  -2   -1.68    5.53
 -14  -9  -2    1.41    6.08
 -14   9   2    2.58    4.27
 -14  -9  -2   -0.55    4.71
  14  -9   2    2.02    3.36
  14  -9  -2   -0.96    5.00
  14   9   2    7.40    3.81
 -14   9  -2   -2.35    4.46
  14   9   2    8.13    3.32
 -14   9  -2   11.36    5.97
  14   9   2    3.94    5.29
 -14   9   3   -5.67    6.67
  14  -9   3    5.01    4.37
 -14  -9  -3    4.96    4.99
  14  -9   3    6.12    3.74
 -14  -9  -3    1.75    6.22
 -14  -9  -3    3.50    6.51
 -14   9   3    1.19    4.30
  14   9  -3    2.77    4.65
  14   9  -3   10.00    5.15
 -14   9  -3    0.62    4.71
  14   9   3   -1.58    5.99
  14  -9  -3    1.82    5.17
  14   9   3    4.06    3.17
  14   9   3    7.89    3.66
 -14   9  -3   15.83    5.87
  14  -9   4    5.00    4.09
  14  -9   4    7.60    4.70
 -14  -9  -4   11.87    6.75
  14   9  -4    7.82    5.33
 -14  -9  -4    8.26    6.57
  14   9  -4    3.30    5.01
 -14   9   4   -2.37    6.13
 -14  -9  -4    4.89    4.67
 -14   9   4    3.67    4.71
  14  -9  -4    0.31    5.06
  14   9   4    5.68    4.01
  14   9   4    4.90    6.47
 -14   9  -4   -1.67    4.94
 -14   9  -4   22.09    6.03
  14   9   4    8.91    3.16
  14   9  -5    2.03    5.37
  14   9  -5   11.71    5.79
 -14  -9  -5    5.10    5.04
  14  -9   5    2.91    4.20
 -14  -9  -5   17.89    7.12
  14  -9   5   -2.59    5.23
 -14  -9  -5    5.55    6.99
 -14   9   5   10.03    5.29
 -14   9   5   -2.42    6.60
 -14   9  -5   -0.37    5.33
 -14   9  -5    5.41    5.06
 -14  -9   5    4.00    4.32
  14   9   5   -0.33    6.62
  14   9   5    6.88    3.34
  14  -9  -5    6.45    5.50
  14   9   5    8.85    4.24
 -15   9   0    4.02    4.85
 -15   9   0    1.36    6.90
  15   9   0   10.71    4.82
 -15  -9   0   -1.28    5.14
 -15  -9   0   10.01    5.63
  15   9   0    2.37    3.36
  15  -9   0    7.61    3.14
 -15  -9   0    0.24    4.70
  15   9   0    4.28    3.94
 -15  -9  -1   -0.23    4.85
  15   9  -1    9.20    5.00
 -15   9   1    1.52    4.68
  15   9  -1   11.19    4.43
  15  -9   1    5.00    3.60
 -15  -9  -1   -5.95    5.84
  15   9  -1    7.94    3.84
 -15   9   1   -9.22    7.22
 -15  -9  -1    4.97    5.28
  15  -9   1    9.28    3.45
 -15   9  -1   17.28    6.72
 -15  -9   1    0.16    4.70
  15  -9  -1    2.85    2.92
  15   9   1    0.45    3.35
  15   9   1    7.04    4.05
  15   9   1    7.68    5.34
 -15   9  -1   -0.22    4.78
 -15  -9  -2    4.21    5.16
 -15   9   2    0.72    4.61
 -15  -9  -2    3.27    6.17
  15  -9   2   -0.87    3.28
  15   9  -2   10.50    5.21
  15  -9   2   11.78    4.18
 -15  -9  -2    1.89    6.28
  15   9  -2   -3.13    4.39
  15   9  -2    0.39    3.70
 -15   9  -2   -3.94    4.70
  15   9   2    4.24    3.17
  15   9   2    5.55    5.82
 -15   9  -2   16.69    7.31
  15   9   2    8.42    3.96
  15   9  -3   -0.92    4.68
 -15  -9  -3   -0.83    4.87
 -15   9   3    0.87    4.77
 -15   9   3  -12.26    6.64
  15   9  -3    8.91    5.19
  15  -9   3    4.61    3.81
  15  -9   3   -2.21    4.27
 -15  -9  -3   -0.77    6.42
 -15  -9  -3   -3.60    6.68
  15   9   3    3.50    3.20
  15  -9  -3   -1.43    5.24
  15   9   3    3.33    3.89
  15   9   3    7.29    6.15
 -15   9  -3   -3.51    4.75
 -15   9   4  -10.40    6.35
  15   9  -4    1.20    5.46
  15  -9   4    0.32    4.44
 -15  -9  -4    7.21    6.79
 -15  -9  -4   -2.36    4.76
  15   9  -4    8.01    5.57
 -15   9   4    1.45    4.73
  15  -9   4    7.42    4.13
 -15  -9  -4    1.84    6.82
  15   9   4    7.59    3.13
  15  -9  -4   -0.53    5.37
  15   9   4    3.42    6.34
 -15   9  -4   -5.41    5.08
  15   9   4    7.90    4.11
 -16  -9   0    5.94    5.86
 -16   9   0    1.13    4.93
 -16  -9   0    2.94    4.93
  16  -9   0    7.49    3.10
  16   9   0    7.60    5.09
 -16  -9   0    1.31    5.16
  16   9   0    3.45    3.56
  16   9   0   10.15    4.37
  16   9  -1    6.43    4.46
  16   9  -1   11.41    5.17
 -16  -9  -1   -5.91    6.10
  16   9  -1    3.46    3.81
 -16  -9  -1   -2.00    5.76
 -16   9   1    2.93    4.96
 -16  -9  -1    3.20    5.15
  16  -9   1    7.40    3.40
  16   9   1    3.55    3.57
 -16  -9   1   -4.92    4.74
 -16   9  -1    2.24    5.01
  16   9   1   11.97    5.72
  16   9   1    8.06    4.26
  16  -9  -1    8.20    3.41
  16  -9   2    4.48    3.52
  16   9  -2    6.04    4.71
 -16  -9  -2   -4.82    5.12
  16  -9   2    5.69    3.91
 -16  -9  -2   13.44    6.76
 -16   9   2   -1.42    4.78
  16   9  -2   11.36    5.50
 -16  -9  -2    2.72    6.61
  16   9  -2    0.21    3.91
  16   9   2   11.95    4.23
  16   9   2   14.43    6.43
  16   9   2    2.80    3.31
 -16   9  -2    0.62    5.05
  16  -9   3   -4.65    4.23
 -16   9   3   -2.40    4.98
 -16  -9  -3    2.23    5.55
 -16   9   3  -12.58    7.08
 -16  -9  -3    3.32    6.77
  16  -9   3    3.02    3.75
 -16  -9  -3    8.45    7.13
  16   9  -3    3.60    4.89
  16   9  -3   17.63    5.54
 -16   9  -3   -2.40    5.15
  16   9   3    7.42    3.50
  16   9   3    9.51    6.43
  16  -9  -3    1.99    5.66
  16   9   3   13.68    4.45
 -17  -9   0   -2.45    5.00
 -17   9   0    2.13    5.16
 -17  -9   0    0.88    5.57
 -17  -9   0    6.04    6.11
  17  -9   0   12.26    3.32
  17   9   0   11.46    4.45
  17   9   0    1.25    3.56
  17   9   0   13.02    5.33
  17   9  -1    8.69    4.69
  17   9  -1   14.03    5.14
  17   9  -1   11.21    4.16
 -17  -9  -1    2.99    5.99
 -17   9   1   -2.86    5.20
  17  -9   1   14.02    4.23
 -17  -9  -1   -2.59    6.34
 -17  -9  -1   -1.35    4.94
  17  -9   1    7.05    3.44
 -17  -9   1   -0.42    4.93
  17   9   1   11.10    4.49
  17   9   1    7.32    3.78
  17   9   1   11.65    5.44
 -17   9  -1   -0.43    5.11
  17   9  -2   17.50    5.73
  17   9  -2    7.24    4.24
 -17   9   2   -7.92    5.10
 -17  -9  -2    1.15    6.95
 -17  -9  -2   -1.85    6.62
  17  -9   2   11.46    4.16
 -17  -9  -2    2.29    5.29
  17   9  -2    8.53    5.01
  17  -9   2    2.59    3.58
 -17   9  -2   -0.31    4.99
  17   9   2    9.81    3.73
  17   9   2   14.19    4.68
  17   9   2   10.82    6.27
   0  10   0   58.95    7.18
   0  10   1   52.88    6.39
   0 -10   1   49.29    3.60
   0 -10  -1   55.83    3.93
   0 -10  -1   51.75    4.32
   0  10  -1   54.37    6.98
   0 -10  -1   53.49    3.47
   0 -10  -2   41.19    4.75
   0 -10   2   43.16    3.88
   0 -10   2   40.58    4.58
   0  10  -2   28.53    5.52
   0 -10  -2   40.10    4.14
   0 -10  -2   38.58    3.63
   0  10   2   48.37    6.14
   0 -10  -3   24.87    3.89
   0 -10   3   36.36    4.88
   0  10  -3   27.27    4.37
   0 -10   3   34.73    4.32
   0  10   3   30.43    5.38
   0 -10   3   32.03    3.80
   0  10  -3   27.98    6.13
   0 -10  -3   29.45    4.60
   0 -10  -3   28.60    3.67
   0 -10   4    3.62    3.55
   0 -10   4   10.32    4.49
   0 -10  -4    6.35    3.39
   0 -10   4    8.61    4.28
   0  10  -4    3.59    5.49
   0  10   4    8.98    5.41
   0  10  -4    9.14    4.55
   0 -10  -4    5.27    4.32
   0 -10  -4    9.63    4.17
   0  10   4   10.89    4.54
   0 -10  -5    8.23    4.68
   0 -10  -5    2.22    3.51
   0 -10   5    8.02    4.87
   0  10   5    2.65    4.89
   0 -10   5    3.35    3.91
   0 -10   5    6.85    3.82
   0 -10  -5    8.29    4.97
   0  10  -5    4.35    4.99
   0  10   5    9.70    5.52
   0  10  -5    3.57    5.84
   0  10   6    4.20    5.38
   0  10  -6   10.26    6.35
   0 -10  -6   15.43    3.86
   0 -10  -6    8.56    4.99
   0 -10   6    1.15    3.41
   0 -10   6    6.26    4.21
   0  10   6    6.36    5.84
   0 -10  -6   10.98    5.06
   0 -10   6    8.26    5.25
   0 -10  -7    2.56    4.99
   0 -10  -7    9.25    3.89
   0  10   7   -7.28    5.96
   0  10  -7   -3.07    6.13
   0 -10  -7   -2.45    5.63
   0  10   7   -3.79    5.90
   0 -10   7   -3.12    5.70
   0 -10  -7    5.71    5.35
   0 -10   7   -3.70    4.04
   0 -10   7   -0.79    4.67
   0 -10   8    1.22    5.85
   0 -10   8    2.41    6.51
   0 -10   8   -9.61    4.56
   0 -10  -8   14.65    5.64
   0  10   8   -7.14    6.82
   0  10  -8   10.16    6.78
   0 -10  -8    8.45    3.83
   0 -10  -8    6.84    5.23
   0  10   8   -5.71    6.61
   0 -10  -8   -3.38    5.80
   1  10   0  134.93    8.32
   1 -10   0  132.85    4.96
  -1  10   0  126.97    8.31
  -1  10   1  108.39    7.55
  -1 -10  -1  110.82    4.73
  -1 -10  -1  112.41    5.24
   1  10  -1  106.30    7.61
  -1 -10  -1  114.89    4.26
   1  10   1  106.09    7.19
   1 -10  -1  106.63    5.10
  -1 -10   1  113.31    4.31
   1 -10  -1  102.94    4.07
   1 -10  -1   99.40    4.56
  -1  10  -1  110.33    8.15
  -1 -10  -2  112.25    5.81
  -1 -10  -2  114.12    4.74
  -1 -10  -2  113.82    5.25
  -1  10   2  110.90    7.36
   1 -10   2  118.46    5.57
   1 -10   2  118.25    5.08
   1  10  -2  111.66    7.86
   1  10  -2  118.68    5.61
  -1  10  -2  112.77    8.12
  -1 -10   2  118.17    4.82
   1 -10  -2  116.21    5.78
   1 -10  -2  107.47    4.51
   1 -10  -2  106.62    5.15
   1  10   2  112.16    7.24
  -1 -10   2  124.96    5.36
  -1 -10  -3   49.65    4.36
   1 -10   3   56.44    5.42
  -1 -10  -3   47.99    5.00
   1  10  -3   47.53    7.36
   1 -10   3   53.73    5.15
  -1 -10  -3   45.46    5.63
   1 -10   3   56.06    4.73
  -1  10   3   56.44    6.65
   1  10  -3   47.88    5.21
  -1  10  -3   57.89    5.30
  -1  10  -3   42.98    7.10
   1 -10  -3   49.35    4.78
   1  10   3   54.61    6.45
  -1 -10   3   54.26    4.51
  -1 -10   3   49.96    5.19
  -1 -10   3   53.91    5.20
   1  10   3   53.48    5.71
   1 -10  -3   49.62    4.13
   1 -10  -3   56.80    5.37
  -1 -10  -4   26.77    4.77
   1  10  -4   29.98    5.22
   1  10  -4   23.77    6.47
  -1 -10  -4   27.17    5.28
  -1  10   4   30.64    6.09
  -1 -10  -4   31.68    4.20
   1 -10   4   29.38    4.26
   1 -10   4   34.60    5.12
   1 -10   4   24.49    4.64
   1 -10  -4   28.54    4.99
   1  10   4   38.40    6.51
   1 -10  -4   27.84    4.03
  -1 -10   4   26.81    4.01
   1 -10  -4   31.27    4.58
  -1 -10   4   24.38    4.63
  -1  10  -4   29.06    5.17
  -1 -10   4   30.51    5.26
   1  10   4   28.03    5.21
  -1  10  -4   25.94    6.40
  -1 -10  -5   21.09    5.15
   1  10  -5   24.42    6.86
  -1 -10  -5   25.21    4.10
  -1  10   5   24.34    5.22
   1  10  -5   25.30    5.57
  -1 -10  -5   20.86    5.47
  -1  10   5   22.57    6.17
   1 -10   5   23.69    5.40
   1 -10   5   22.31    4.53
   1 -10   5   18.32    4.15
   1  10   5   28.07    6.28
  -1 -10   5   29.76    5.68
  -1  10  -5   26.56    6.76
   1 -10  -5   26.88    4.27
   1  10   5   22.90    5.72
   1 -10  -5   25.17    5.23
   1 -10  -5   30.50    5.10
  -1 -10   5   22.93    4.77
  -1 -10   5   21.98    4.06
   1 -10   6    5.41    3.87
   1 -10   6    6.79    4.34
  -1  10   6   11.93    5.43
   1  10  -6   20.73    6.89
  -1 -10  -6   15.18    5.25
  -1  10   6   11.24    6.21
  -1 -10  -6   19.88    3.91
  -1 -10  -6   18.83    5.43
   1 -10   6    9.30    5.53
   1  10   6   10.02    5.78
   1  10   6   11.95    6.13
   1 -10  -6    7.67    4.72
  -1 -10   6    7.50    3.81
  -1 -10   6   13.24    4.62
  -1  10  -6   19.37    6.60
  -1 -10   6   15.74    5.67
   1 -10  -6   11.58    5.20
   1 -10  -6   13.50    3.91
  -1 -10  -7   12.73    5.45
  -1 -10  -7   18.46    4.26
   1 -10   7    5.79    5.88
  -1 -10  -7    5.07    5.88
  -1 -10  -7   15.49    5.54
  -1  10   7   -4.96    5.91
  -1  10   7    0.62    6.51
   1 -10   7    5.74    4.51
   1  10  -7    9.63    7.06
   1 -10   7    1.72    4.84
   1  10   7   10.00    6.64
  -1 -10   7    4.35    5.87
   1 -10  -7   11.28    3.94
   1 -10  -7   17.51    5.55
   1  10   7   -3.39    6.24
   1 -10  -7    7.11    6.22
  -1  10  -7   14.98    6.91
  -1 -10   7    0.53    4.76
  -1 -10   7    2.36    3.85
   1 -10  -7   11.36    5.30
  -1 -10  -8   21.72    6.13
   1 -10   8   -8.44    5.49
  -1 -10  -8   21.74    5.76
   1  10  -8    5.25    6.90
  -1 -10  -8   15.70    4.19
   1 -10   8   -0.91    6.53
  -1  10   8   -4.37    6.92
  -1  10   8   -5.63    6.69
  -1 -10  -8   -0.79    6.04
   1 -10   8    2.07    4.88
   1 -10  -8   10.93    5.58
   1  10   8   -0.40    6.77
   1 -10  -8    6.63    3.79
  -1 -10   8    0.31    5.57
  -1  10  -8   16.06    7.43
   1  10   8   -8.11    6.70
  -1 -10   8    3.43    6.34
   1 -10  -8    8.59    5.80
  -1 -10   8   -2.20    4.72
   1 -10  -8   -1.02    6.12
   2  10   0   14.56    3.01
  -2  10   0   18.48    5.43
   2 -10   0   18.22    2.95
   2  10   0   22.53    5.56
   2  10  -1   36.27    6.46
  -2  10   1   48.57    6.58
   2  10  -1   45.73    4.25
   2 -10   1   38.50    3.58
  -2 -10  -1   39.02    3.93
  -2 -10  -1   36.95    4.33
   2 -10  -1   41.09    4.16
   2 -10  -1   42.63    3.22
  -2 -10   1   43.92    3.42
   2  10   1   44.76    6.07
   2 -10  -1   42.38    3.80
  -2  10  -1   42.86    7.16
   2  10   1   44.53    4.67
   2 -10   2   51.47    4.84
  -2 -10  -2   45.42    5.09
   2  10  -2   52.65    4.84
   2  10  -2   44.33    6.51
  -2  10   2   47.81    6.32
  -2 -10  -2   50.75    4.58
   2 -10   2   45.83    4.30
  -2 -10  -2   51.08    3.94
  -2 -10   2   50.46    3.90
   2 -10  -2   52.52    4.79
  -2 -10   2   54.28    4.52
   2 -10  -2   47.05    4.30
   2  10   2   59.84    6.36
   2  10   2   52.91    5.45
  -2  10  -2   40.92    7.01
   2 -10  -2   46.94    3.65
  -2 -10  -3   16.46    3.85
   2 -10   3   23.43    4.22
  -2  10   3   25.71    5.45
   2  10  -3   24.44    4.33
  -2 -10  -3   22.34    4.47
   2 -10   3   19.69    3.78
  -2 -10  -3   15.66    3.48
   2  10  -3   22.51    6.03
   2  10   3   26.12    5.30
   2 -10  -3   23.81    4.16
   2 -10  -3   22.09    3.74
   2  10   3   21.70    4.66
  -2 -10   3   23.66    3.90
   2 -10  -3   26.26    3.44
  -2  10  -3   17.23    5.49
  -2 -10   3   23.94    3.59
  -2 -10  -4    7.59    4.18
   2 -10   4   11.16    4.46
   2  10  -4    6.82    5.78
   2 -10   4    8.69    3.66
  -2  10   4    6.44    5.05
   2  10  -4    8.18    4.55
   2 -10   4   13.22    4.41
  -2 -10  -4    8.13    4.76
  -2 -10  -4    8.72    3.58
  -2  10  -4    8.43    5.62
   2  10   4   11.67    5.01
   2 -10  -4    6.04    4.15
   2 -10  -4   11.20    3.45
  -2 -10   4    8.47    4.49
  -2 -10   4    6.62    3.48
  -2 -10   4    7.26    3.94
   2 -10  -4    7.86    3.84
   2  10   4   13.47    5.39
   2  10  -5    7.80    6.26
   2 -10   5    6.26    3.74
  -2 -10  -5    6.42    3.50
   2 -10   5   11.22    5.07
  -2 -10  -5   13.66    5.16
   2  10  -5   12.49    5.03
   2 -10   5   13.80    4.51
  -2  10   5   10.25    5.63
  -2  10   5    9.37    4.67
  -2 -10  -5   15.58    5.01
  -2  10  -5   14.46    6.06
  -2 -10   5   12.97    4.15
   2 -10  -5   14.35    4.64
   2  10   5   12.07    5.58
   2 -10  -5    9.91    4.89
   2  10   5    3.11    5.20
  -2 -10   5   13.34    5.08
   2 -10  -5   10.42    3.68
  -2 -10   5    9.84    3.58
   2  10  -6    4.50    5.24
  -2 -10  -6   10.77    5.42
   2 -10   6   10.76    5.45
  -2 -10  -6    9.07    3.80
  -2 -10  -6    9.47    5.12
   2 -10   6    2.03    3.79
  -2  10   6   13.04    6.28
   2  10  -6   11.70    6.53
  -2  10   6    3.46    5.13
   2 -10   6    1.28    4.32
   2 -10  -6    9.21    3.90
   2 -10  -6    7.03    5.06
   2  10   6    8.24    5.97
  -2 -10   6    3.37    3.57
   2 -10  -6   16.28    5.24
  -2  10  -6   15.53    6.31
   2  10   6    4.72    5.73
  -2 -10   6    5.59    4.48
  -2 -10   6    3.63    5.03
   2 -10   7   -1.76    4.31
  -2 -10  -7   11.22    3.71
   2 -10   7   -2.44    5.03
  -2  10   7    3.79    6.38
  -2 -10  -7    9.65    5.52
  -2  10   7   -7.03    5.89
   2  10  -7   15.19    7.31
  -2 -10  -7    0.95    5.51
   2 -10   7    5.06    6.04
  -2 -10  -7   14.27    5.95
   2 -10  -7    7.50    5.32
   2  10   7    3.39    6.46
  -2  10  -7   13.01    6.67
  -2 -10   7    4.23    4.89
   2 -10  -7    0.36    3.57
   2 -10  -7    5.89    5.24
   2  10   7    2.62    6.11
  -2 -10   7    6.30    5.81
  -2 -10   7    0.20    3.76
   3 -10   0   36.17    3.72
  -3  10   0   33.67    6.09
   3 -10   0   35.96    2.89
   3  10   0   36.09    4.28
   3  10   0   37.74    6.67
   3  10  -1   78.66    4.91
   3  10  -1   84.12    7.27
  -3 -10  -1   79.66    4.01
  -3 -10  -1   79.15    4.96
   3  10  -1   82.23    4.03
  -3  10   1   80.50    7.39
   3 -10  -1   78.96    3.67
  -3 -10   1   78.68    3.77
   3  10   1   75.25    6.69
   3 -10  -1   76.20    4.70
   3 -10  -1   81.47    4.34
  -3  10  -1   71.13    7.83
   3  10   1   77.37    5.45
   3 -10   2   38.40    4.00
  -3 -10  -2   40.51    3.85
  -3 -10  -2   42.30    5.09
   3 -10   2   39.84    4.49
  -3 -10  -2   35.74    4.44
   3  10  -2   36.67    6.15
  -3  10   2   41.50    6.33
   3  10  -2   42.79    4.79
   3 -10  -2   42.56    3.56
   3  10   2   41.82    6.21
  -3 -10   2   42.39    3.83
   3  10   2   42.21    5.76
   3 -10  -2   42.77    4.28
  -3  10  -2   40.00    7.12
  -3 -10   2   46.04    4.38
   3 -10  -2   46.39    4.74
   3  10  -3   40.05    5.36
  -3 -10  -3   38.21    4.12
  -3 -10  -3   39.20    5.02
  -3 -10  -3   41.61    5.62
   3 -10   3   42.41    4.85
   3  10  -3   37.60    6.46
   3 -10   3   43.67    4.83
  -3  10   3   42.41    6.61
  -3  10  -3   36.70    6.61
   3 -10  -3   39.77    5.19
   3 -10  -3   43.04    4.55
  -3 -10   3   39.12    4.21
   3  10   3   46.52    6.24
   3 -10  -3   43.26    3.82
   3  10   3   45.93    6.10
  -3 -10   3   42.96    4.85
  -3 -10  -4   20.30    3.92
   3 -10   4   20.87    4.82
  -3 -10  -4   19.20    4.69
   3 -10   4   19.96    4.18
   3  10  -4   23.64    5.06
  -3  10   4   20.01    5.80
   3 -10   4   24.41    5.03
  -3 -10  -4   18.91    5.16
   3  10  -4   20.93    6.68
   3  10   4   22.45    5.52
   3 -10  -4   21.85    3.58
  -3  10  -4   15.59    6.13
  -3 -10   4   25.30    4.33
   3  10   4   25.07    5.69
  -3 -10   4   18.97    4.88
   3 -10  -4   20.59    4.41
   3 -10  -4   27.42    5.00
  -3 -10   4   14.63    3.59
  -3 -10  -5   26.70    4.08
  -3  10   5   21.19    6.13
   3  10  -5   27.39    5.54
  -3 -10  -5   28.47    5.69
   3 -10   5   25.06    5.43
   3 -10   5   15.25    4.81
  -3 -10  -5   26.09    5.16
   3 -10   5   16.52    4.15
   3  10  -5   26.21    6.80
  -3 -10   5   14.99    3.69
   3  10   5   22.62    5.91
   3 -10  -5   29.77    5.11
   3  10   5   23.52    5.91
   3 -10  -5   20.88    3.75
  -3 -10   5   22.99    5.51
  -3 -10   5   18.53    4.42
   3 -10  -5   24.12    5.22
  -3  10  -5   26.60    6.67
  -3 -10  -6   19.81    5.63
   3 -10   6    3.51    5.26
   3  10  -6   13.58    5.53
   3 -10   6    6.15    4.84
  -3  10   6   14.30    6.14
  -3  10   6    5.72    5.28
   3 -10   6    9.71    4.23
  -3 -10  -6   20.64    5.66
  -3 -10  -6   12.51    3.74
   3  10  -6   14.72    6.60
   3  10   6    7.54    5.93
   3 -10  -6   10.09    3.66
   3 -10  -6   13.05    4.92
  -3  10  -6   13.05    6.43
  -3 -10   6   13.16    5.49
  -3 -10   6    7.34    4.31
   3 -10  -6   17.45    5.33
   3  10   6   10.76    6.05
  -3 -10   6    5.59    3.51
  -3  10   7  -11.45    5.89
  -3  10   7    1.86    6.75
   3 -10   7   -0.57    5.03
  -3 -10  -7    9.08    5.86
  -3 -10  -7    4.67    3.80
  -3 -10  -7    2.25    5.48
   3 -10   7    4.76    4.41
   3 -10   7    0.38    5.86
   3  10  -7    5.64    6.68
  -3 -10  -7   16.88    5.99
   3 -10  -7    9.48    3.87
   3  10   7   -0.06    6.03
  -3 -10   7    7.05    5.98
  -3  10  -7    6.51    6.08
   3 -10  -7   11.51    5.57
  -3 -10   7   -2.44    4.70
  -3 -10   7   -0.32    3.61
   3 -10  -7    7.95    5.16
   3  10   7   -6.40    6.30
   4  10   0   14.73    3.50
  -4  10   0   16.73    5.74
   4  10   0   16.23    5.24
   4 -10   0   15.82    3.06
   4 -10   0   16.72    2.63
  -4 -10  -1    7.61    3.30
  -4 -10  -1   12.73    2.93
  -4  10   1   17.60    5.55
   4  10  -1   13.58    5.00
  -4 -10  -1   10.64    3.07
   4  10  -1   12.79    3.41
   4  10  -1   10.12    2.75
  -4  10  -1   11.52    2.81
  -4  10  -1   13.79    6.20
   4  10   1   13.69    5.04
   4 -10  -1   14.38    2.61
   4 -10  -1   11.00    3.09
   4  10   1   12.72    3.89
   4  10  -2   23.17    4.15
   4  10  -2   22.93    5.51
  -4 -10  -2   24.61    3.54
  -4 -10  -2   20.73    3.81
  -4 -10  -2   19.26    4.22
  -4  10   2   20.63    5.32
   4 -10   2   23.43    3.54
   4  10   2   25.19    4.96
   4 -10  -2   24.56    3.63
  -4 -10   2   24.57    3.63
   4  10   2   24.65    5.45
   4 -10  -2   20.10    2.89
   4 -10  -2   24.72    3.69
  -4 -10   2   22.10    3.11
  -4  10  -2   21.49    6.01
   4  10  -3   17.51    4.32
   4 -10   3   19.60    3.86
  -4 -10  -3   15.26    3.91
  -4 -10  -3   11.42    3.52
   4 -10   3   14.14    4.50
  -4  10   3   16.05    5.30
   4  10  -3   14.41    5.73
  -4 -10  -3   17.10    4.54
  -4  10  -3   12.45    5.65
   4 -10  -3   17.08    3.11
  -4 -10   3   14.62    3.59
   4 -10  -3   17.59    3.86
   4  10   3   19.40    4.93
   4  10   3   16.59    4.94
   4 -10  -3   18.82    4.07
  -4 -10   3   12.89    3.36
  -4 -10  -4   13.59    4.49
   4 -10   4   13.86    4.08
   4 -10   4   18.24    4.90
  -4 -10  -4   20.38    4.09
   4  10  -4   11.41    4.83
   4  10  -4   16.62    6.53
  -4 -10  -4   10.09    4.95
  -4  10   4   12.78    5.52
   4  10   4   19.06    5.65
  -4 -10   4   17.43    4.79
   4 -10  -4   15.47    3.42
  -4 -10   4   16.79    4.03
  -4  10  -4    9.50    5.93
   4 -10  -4   12.43    4.20
   4  10   4   16.64    5.32
  -4 -10   4   12.19    3.55
   4 -10  -4   15.51    4.54
  -4  10   5    9.08    5.49
  -4 -10  -5   13.32    4.74
   4  10  -5    7.39    4.87
   4 -10   5    6.26    3.79
   4 -10   5    5.91    4.50
  -4 -10  -5   10.65    3.48
   4 -10   5   11.24    4.86
   4  10  -5   19.54    6.70
  -4 -10  -5   15.49    5.14
   4 -10  -5   11.69    4.49
   4 -10  -5    6.87    3.22
   4  10   5    8.18    5.49
   4 -10  -5   11.81    4.69
  -4  10  -5   14.29    5.94
   4  10   5   10.86    5.16
  -4 -10   5    6.63    3.24
  -4 -10   5    7.34    3.79
  -4 -10   5   11.13    4.81
  -4  10   6   11.13    5.97
  -4 -10  -6   14.32    5.64
   4 -10   6    3.61    4.01
  -4 -10  -6   17.81    4.04
   4  10  -6   11.86    6.63
   4 -10   6    1.37    4.75
   4 -10   6    7.23    5.42
   4  10  -6    8.96    5.41
  -4 -10  -6   11.96    5.44
  -4  10  -6   13.32    6.39
   4 -10  -6   12.21    3.82
  -4 -10   6    2.55    4.19
   4 -10  -6    7.95    4.98
   4  10   6    6.50    6.27
  -4 -10   6    3.79    5.43
   4  10   6    6.35    5.58
  -4 -10   6    3.29    3.49
   4 -10  -6   15.87    5.09
  -4 -10  -7    2.98    5.44
   4  10  -7    8.63    6.02
  -4 -10  -7   11.39    6.00
   4 -10   7    1.58    5.24
  -4 -10  -7   17.83    4.10
  -4  10   7    5.13    6.80
  -4  10   7  -11.02    5.77
   4  10  -7    8.36    6.67
   4 -10   7    3.61    6.01
  -4 -10  -7   21.76    6.09
   4 -10   7   -0.63    4.34
   4  10   7    4.57    6.14
   4 -10  -7    8.58    5.10
  -4 -10   7    5.84    4.93
   4  10   7    9.68    6.90
  -4  10  -7   11.33    6.49
   4 -10  -7   16.67    5.69
  -4 -10   7    4.41    3.53
  -4 -10   7    4.68    5.86
   4 -10  -7    9.15    3.79
   5  10   0   35.52    6.41
  -5  10   0   38.66    6.82
   5 -10   0   43.68    4.37
   5  10   0   34.50    4.95
   5  10   0   38.91    3.40
  -5  10   0   36.50    4.15
  -5  10   1   19.88    6.10
   5  10  -1   17.69    5.19
   5 -10   1   19.09    3.50
   5 -10   1   17.16    3.15
  -5 -10  -1   17.06    3.37
  -5 -10  -1   16.49    3.81
   5  10  -1   16.62    3.84
   5  10  -1   15.18    2.98
   5  10   1   18.07    4.38
   5  10   1   20.76    5.35
  -5  10  -1   15.72    6.51
   5 -10  -1   19.44    2.93
  -5  10  -1   22.48    3.25
   5 -10  -1   22.83    3.64
  -5 -10  -2   35.99    4.28
  -5 -10  -2   38.56    4.96
   5  10  -2   40.56    5.26
   5  10  -2   36.06    6.50
   5 -10   2   40.43    4.30
  -5  10   2   38.07    6.74
   5  10  -2   38.72    4.33
  -5 -10  -2   41.71    4.10
   5  10   2   37.07    5.86
   5 -10  -2   37.37    3.54
   5  10   2   37.17    5.60
  -5 -10   2   41.63    4.50
   5 -10  -2   40.60    4.88
  -5  10  -2   35.36    6.84
  -5  10   3   12.93    5.31
   5 -10   3   13.22    4.66
   5  10  -3   11.00    4.25
  -5 -10  -3   15.57    4.80
   5  10  -3   14.36    5.73
  -5 -10  -3   17.97    3.80
   5 -10   3    9.19    3.66
  -5 -10  -3    6.77    3.86
   5 -10  -3   12.98    3.69
   5 -10  -3    6.78    3.67
  -5 -10   3    8.86    3.61
   5 -10  -3   12.06    3.00
   5  10   3   14.10    5.15
  -5  10  -3    7.54    5.62
  -5 -10   3   11.69    3.16
   5  10   3   10.56    4.95
  -5 -10  -4   16.59    4.85
  -5 -10  -4   15.60    3.95
  -5  10   4   12.23    5.40
   5 -10   4   16.52    4.14
   5  10  -4   17.14    5.03
  -5 -10  -4   15.95    5.29
   5 -10   4   13.33    4.99
   5  10  -4   11.26    6.48
  -5  10  -4   16.20    6.33
   5 -10  -4   13.74    3.20
   5  10   4   16.12    5.09
  -5 -10   4   16.88    3.68
  -5 -10   4   14.87    4.08
   5 -10  -4   16.06    4.48
   5  10   4   14.50    5.78
   5 -10  -4   19.58    4.47
   5 -10   5    6.70    3.76
  -5 -10  -5   13.86    3.72
   5  10  -5    9.70    4.71
  -5  10   5    3.98    5.23
   5  10  -5   16.06    6.39
  -5 -10  -5   14.46    5.41
   5 -10   5   11.39    4.74
  -5 -10  -5   12.90    5.07
   5 -10   5    2.54    4.41
   5 -10  -5   14.11    4.57
   5  10   5    2.27    5.45
  -5 -10   5    8.27    3.82
   5 -10  -5    9.08    4.53
   5 -10  -5    8.82    3.21
  -5 -10   5   11.30    3.51
   5  10   5    8.80    5.27
  -5 -10   5   12.26    4.75
  -5  10  -5   13.87    5.90
   5 -10   6    4.19    4.65
  -5 -10  -6   10.42    3.78
   5 -10   6    5.93    5.41
  -5  10   6    3.60    5.64
   5  10  -6    9.26    5.25
   5  10  -6    9.35    6.55
   5 -10   6    2.12    3.95
  -5 -10  -6   12.59    5.82
  -5 -10  -6   20.76    5.88
  -5 -10   6    4.99    3.60
   5 -10  -6   17.31    5.49
  -5  10  -6   16.94    6.40
   5 -10  -6    5.37    3.41
   5  10   6    4.76    6.20
   5  10   6    8.45    5.66
   5 -10  -6   11.80    5.08
  -5 -10   6    3.94    4.36
  -5 -10   6    9.04    5.45
  -5 -10  -7    6.65    3.95
  -5  10   7    7.45    6.32
   5  10  -7    7.50    6.97
  -5 -10  -7   13.54    5.97
   5 -10   7   -1.14    6.15
   5 -10   7   -2.36    5.15
   5  10  -7   -3.08    5.36
  -5 -10  -7    9.95    5.93
   5 -10   7   -0.94    4.33
  -5 -10   7   -0.76    3.35
  -5  10  -7   15.26    6.79
   5  10   7   -9.05    6.53
   5 -10  -7    1.56    4.92
   5  10   7   -1.38    5.72
  -5 -10   7   -1.57    4.87
   5 -10  -7    2.48    3.56
  -5 -10   7    5.77    5.84
   5 -10  -7    2.29    4.80
   6  10   0    2.93    3.87
  -6  10   0    2.79    2.98
  -6  10   0    8.25    6.14
   6 -10   0    4.12    3.33
   6  10   0    3.84    2.68
  -6 -10  -1    0.21    3.17
   6  10  -1    0.56    3.54
  -6 -10  -1    1.61    3.29
   6 -10   1   -0.32    2.88
  -6 -10  -1    0.34    3.77
   6  10  -1    0.84    2.87
  -6  10   1    1.34    5.29
   6 -10   1    2.22    3.17
   6  10   1    0.26    3.91
  -6  10  -1    2.71    2.90
   6  10   1    1.25    2.12
   6  10   1   -1.52    2.41
  -6  10  -1    1.28    6.24
   6 -10  -1    3.01    3.26
   6  10  -2    1.42    3.75
   6  10  -2    3.82    3.30
   6 -10   2   -1.47    3.28
   6  10  -2    5.86    4.77
  -6 -10  -2   -1.98    4.14
  -6 -10  -2   -2.70    3.57
  -6 -10  -2    2.45    3.40
  -6  10   2    7.18    5.27
   6 -10  -2    4.21    2.65
   6  10   2   -0.94    4.82
   6 -10  -2    0.50    3.37
  -6  10  -2    1.13    3.18
  -6  10  -2   -0.07    5.90
  -6 -10   2    5.18    3.38
  -6 -10  -3   18.90    5.27
  -6 -10  -3   14.90    4.61
  -6  10   3   17.25    5.64
   6  10  -3   17.28    5.93
   6 -10   3   13.61    4.73
   6 -10   3   16.68    3.96
   6  10  -3   13.33    4.59
  -6 -10  -3   15.22    3.97
   6 -10  -3   19.55    4.46
  -6 -10   3   13.62    3.35
  -6 -10   3   14.01    3.85
  -6  10  -3   14.61    6.21
   6  10   3   11.84    5.31
   6 -10  -3   15.23    3.21
   6  10  -4   14.04    6.24
  -6 -10  -4   13.83    5.34
   6  10  -4   10.94    4.66
  -6 -10  -4   12.27    3.87
  -6  10   4   10.18    5.26
   6 -10   4    8.41    4.77
   6 -10   4   11.35    4.04
  -6 -10  -4    9.46    4.88
   6 -10  -4   14.99    4.36
   6  10   4   10.24    4.88
   6 -10  -4   11.72    3.30
   6  10   4   15.36    5.75
   6 -10  -4   16.11    4.62
  -6 -10   4    7.55    3.59
  -6  10  -4   12.97    6.37
  -6 -10   4    6.10    3.30
  -6  10   5    4.60    5.23
  -6 -10  -5   22.07    5.39
   6  10  -5   13.55    4.83
   6 -10   5    6.05    3.71
  -6 -10  -5   11.76    5.38
   6 -10   5    5.19    4.50
  -6 -10  -5   11.46    3.75
   6  10  -5   13.19    6.25
   6 -10  -5   14.15    4.63
  -6 -10   5    5.70    3.20
  -6  10  -5   11.93    5.67
  -6 -10   5    6.96    3.74
  -6 -10   5    6.09    4.57
   6 -10  -5    9.88    3.16
   6  10   5    3.00    4.92
   6 -10  -5   10.15    4.31
   6  10   5   -0.38    5.52
   6  10  -6   11.85    6.90
  -6 -10  -6   23.75    6.24
  -6 -10  -6   22.97    6.42
   6 -10   6    7.28    5.14
   6 -10   6    2.43    5.57
   6 -10   6   10.41    4.14
   6  10  -6   17.28    5.58
  -6 -10  -6   17.54    4.16
  -6  10   6   10.83    6.19
   6 -10  -6   18.69    5.13
   6  10   6    9.93    6.47
  -6 -10   6    9.18    4.45
  -6 -10   6   15.60    5.81
   6 -10  -6   12.21    5.36
   6  10   6   13.28    5.75
  -6 -10   6    6.96    3.66
  -6  10  -6   18.28    6.56
   6 -10  -6   14.81    3.68
  -6 -10  -7   18.95    6.26
   6 -10   7   -5.64    6.34
   6  10  -7   16.00    7.03
   6  10  -7    6.64    5.75
   6 -10   7    3.60    4.44
   6 -10   7    2.80    5.27
  -6  10   7    6.19    6.46
  -6 -10  -7   14.16    4.13
  -6 -10  -7   20.16    6.35
   6 -10  -7    6.25    4.99
  -6 -10   7   10.16    5.25
   6  10   7   -2.13    5.51
   6  10   7   -4.65    6.60
   6 -10  -7   12.78    5.36
  -6 -10   7    1.73    3.63
  -6 -10   7    6.89    5.85
   6 -10  -7   12.85    3.83
  -6  10  -7   20.79    6.96
   7 -10   0    2.26    3.46
   7  10   0   -2.87    3.83
   7  10   0   -1.11    2.74
  -7  10   0    3.48    3.25
   7  10   0    1.29    2.41
  -7  10   0   -0.46    6.21
  -7 -10  -1    3.89    3.60
   7  10  -1    3.12    4.01
  -7  10   1   10.58    5.83
  -7 -10  -1    3.49    4.01
   7 -10   1    4.17    3.52
   7  10  -1    4.47    3.06
  -7  10   1    4.00    3.33
  -7 -10  -1    5.32    3.46
   7 -10   1   10.17    3.13
   7 -10  -1   10.35    3.66
   7  10   1    6.50    2.80
  -7  10  -1    5.39    3.33
   7  10   1    6.97    2.42
  -7  10  -1   10.16    6.98
   7  10   1    3.86    4.36
  -7 -10  -2    5.97    4.05
   7  10  -2    4.57    3.44
   7 -10   2    6.76    3.55
  -7 -10  -2    2.59    4.52
  -7 -10  -2    7.83    3.72
  -7  10   2    8.49    5.75
   7  10  -2    4.10    4.11
   7 -10  -2    7.16    2.98
   7  10   2    4.52    5.21
  -7  10  -2    5.90    6.59
   7 -10  -2    3.40    3.74
   7  10   2    6.17    2.45
  -7  10  -2   10.10    3.59
   7  10  -3    1.01    4.22
   7  10  -3    2.88    5.47
  -7 -10  -3   -2.53    4.90
  -7 -10  -3    2.60    3.75
  -7  10   3   -0.49    5.23
   7  10  -3   -0.06    3.82
  -7 -10  -3   -0.42    4.16
   7 -10   3    0.73    4.66
   7 -10   3    1.31    3.59
   7  10   3    0.54    5.45
  -7  10  -3    0.17    6.01
   7 -10  -3    0.50    2.82
   7 -10  -3    3.96    4.03
  -7 -10   3    0.69    3.40
  -7 -10  -4    3.49    4.61
   7  10  -4    4.14    5.66
   7 -10   4   -0.50    3.48
   7 -10   4    0.39    4.52
  -7  10   4   -0.41    5.08
   7  10  -4    5.05    4.29
  -7 -10  -4    6.76    3.51
  -7 -10  -4    2.96    5.03
  -7 -10   4   -3.85    2.65
  -7 -10   4   -1.31    3.28
   7 -10  -4    3.05    4.14
   7  10   4    5.70    5.42
  -7  10  -4    7.51    5.91
   7 -10  -4    1.82    3.00
   7 -10   5    7.79    4.75
   7  10  -5   10.69    6.29
  -7 -10  -5   22.18    5.65
  -7 -10  -5   14.76    5.62
  -7 -10  -5   12.72    3.94
  -7  10   5    8.68    5.79
   7  10  -5   12.24    5.00
   7 -10   5    0.78    4.79
   7 -10   5    6.71    3.81
  -7 -10   5    9.35    4.86
   7  10   5   10.20    5.89
   7 -10  -5   10.39    3.52
   7  10   5    5.37    5.00
  -7 -10   5   10.16    3.97
  -7 -10   5    6.89    3.38
  -7  10  -5    9.94    6.10
   7 -10  -5   12.40    4.52
   7 -10  -5   12.53    4.78
  -7 -10  -6   16.38    6.02
  -7 -10  -6   12.45    5.93
  -7 -10  -6    7.80    3.92
  -7  10   6   -2.89    5.50
   7 -10   6   -1.16    3.90
   7  10  -6    8.43    5.46
   7  10  -6    5.19    6.27
   7 -10   6   -6.32    5.36
   7 -10   6   -2.68    4.90
   7  10   6   -1.68    4.99
   7 -10  -6   -1.39    4.58
   7 -10  -6   10.25    4.56
  -7  10  -6    8.11    6.32
   7  10   6    2.70    6.38
  -7 -10   6    3.15    4.39
   7 -10  -6    6.02    3.65
  -7 -10   6   -0.17    5.24
  -7 -10   6    0.01    3.27
   7 -10   7   -2.11    5.28
  -7 -10  -7   11.23    6.31
   7 -10   7   -1.56    4.26
  -7  10   7   -5.07    5.90
   7 -10   7   -9.88    6.31
  -7 -10  -7   14.16    6.13
   7  10  -7    6.19    6.83
   7  10  -7   -0.32    5.42
  -7 -10  -7    9.16    4.19
   7 -10  -7    6.91    4.81
  -7 -10   7    5.12    5.88
  -7 -10   7   -3.72    4.68
  -7  10  -7   14.05    6.64
   7 -10  -7    6.48    5.05
  -7 -10   7   -0.61    3.51
   7  10   7   -1.00    6.72
   7 -10  -7    1.87    3.52
   8  10   0    8.04    3.15
   8 -10   0    4.56    3.84
   8  10   0    2.94    4.15
  -8  10   0    2.18    6.74
  -8  10   0    3.25    3.57
   8  10   0    4.31    2.70
  -8  10   1    3.75    3.45
   8  10  -1    4.00    4.08
  -8 -10  -1    2.44    4.41
   8 -10   1    3.64    3.06
   8  10  -1    4.59    3.28
  -8 -10  -1    4.09    3.77
  -8  10   1    4.30    6.08
   8  10   1    3.44    4.35
  -8  10  -1    6.91    3.71
  -8  10  -1    9.05    7.07
   8  10   1    3.00    2.56
   8  10   1    6.34    3.01
   8 -10  -1    0.86    3.84
  -8 -10  -2    0.75    4.15
   8 -10   2    5.74    3.65
  -8 -10  -2    7.79    4.15
  -8  10   2    6.03    6.24
  -8 -10  -2    3.01    4.92
   8  10  -2    4.57    3.69
   8  10  -2    4.53    4.20
  -8  10  -2    6.01    6.96
   8  10   2    5.21    3.01
  -8  10  -2    4.90    3.87
   8  10   2    6.27    5.40
   8  10   2    7.76    2.65
   8 -10  -2    6.64    4.10
  -8 -10  -3   -0.84    4.57
   8  10  -3    1.67    3.94
  -8  10   3    2.97    5.69
   8  10  -3    5.48    4.23
  -8 -10  -3    5.10    3.84
  -8 -10  -3    3.13    5.24
   8  10  -3    6.76    5.39
   8 -10   3    6.68    3.96
   8 -10   3    6.59    4.74
   8  10   3    8.76    2.66
   8 -10  -3    5.75    4.21
  -8 -10   3    6.45    3.68
  -8  10  -3    5.93    3.95
   8 -10  -3    9.09    3.21
   8  10   3    1.94    5.54
  -8  10  -3    2.31    6.31
  -8 -10  -4   14.16    5.38
   8  10  -4   18.05    5.89
   8 -10   4    9.27    4.19
  -8  10   4    5.33    5.54
  -8 -10  -4   18.25    4.02
   8  10  -4   12.24    4.54
  -8 -10  -4   16.18    5.16
   8 -10   4   15.56    4.91
   8 -10  -4   11.12    3.40
   8 -10  -4   11.60    4.59
   8  10   4   15.08    5.68
  -8 -10   4   12.36    3.74
  -8 -10   4    9.51    2.99
  -8  10  -4   24.56    6.67
  -8 -10  -5   13.41    5.79
   8  10  -5    7.41    4.89
   8 -10   5    1.34    7.23
   8 -10   5   10.10    3.93
  -8 -10  -5   13.40    5.71
   8 -10   5    9.91    5.01
  -8 -10  -5   16.94    4.19
  -8  10   5    3.53    5.42
   8  10  -5   11.36    6.18
   8  10   5   15.42    6.30
  -8 -10   5   11.79    4.18
   8 -10  -5    9.04    4.90
  -8 -10   5   16.94    5.29
   8 -10  -5   12.34    3.57
  -8 -10   5    7.23    3.27
  -8  10  -5   14.85    6.27
   8  10  -6    8.80    6.32
  -8  10   6    4.39    6.24
  -8 -10  -6   12.13    4.45
   8 -10   6    0.30    5.01
   8  10  -6    5.51    5.55
  -8 -10  -6   21.53    6.39
  -8 -10  -6   13.78    6.19
   8 -10   6    2.55    4.09
   8  10   6    0.16    6.47
   8 -10  -6   14.02    3.97
  -8 -10   6    7.36    4.42
  -8 -10   6    1.64    5.43
  -8 -10   6    7.20    3.43
  -8  10  -6   21.59    6.99
   8 -10  -6    4.63    4.96
  -8 -10  -7   17.69    6.58
   8  10  -7   13.75    7.13
  -8  10   7    0.54    6.53
  -8 -10  -7   26.20    6.93
   8 -10   7    1.82    4.43
   8 -10   7    4.86    5.52
   8  10  -7   11.41    6.04
  -8 -10  -7   20.25    4.71
   8  10   7    0.71    7.14
  -8 -10   7   11.89    6.24
   8 -10  -7   10.06    4.03
  -8 -10   7    1.42    3.80
  -8  10  -7   11.83    6.75
   8 -10  -7    3.03    5.15
  -8 -10   7   -2.87    4.76
  -9  10   0    6.66    3.68
   9  10   0    5.59    2.96
   9  10   0    4.35    3.30
   9 -10   0    6.01    4.23
  -9  10   0   14.51    7.50
   9  10   0    3.80    4.32
   9  10  -1    3.32    3.56
  -9 -10  -1    3.17    4.24
  -9 -10  -1    7.69    4.92
   9  10  -1    4.25    4.48
  -9  10   1    9.28    6.62
  -9  10   1    4.09    3.78
   9 -10   1    7.25    3.22
   9  10   1    1.30    4.52
   9 -10  -1   11.17    4.41
  -9  10  -1   10.66    7.31
  -9  10  -1    9.21    4.13
   9  10   1    3.31    3.23
   9  10   1    4.95    2.78
   9  10  -2   14.11    4.12
  -9 -10  -2   17.18    4.43
  -9  10   2   16.49    7.17
  -9 -10  -2   17.31    4.93
  -9  10   2   12.93    4.05
   9 -10   2   12.77    3.95
   9  10  -2   15.93    4.63
  -9 -10  -2   14.80    5.59
   9  10   2   12.87    3.50
  -9  10  -2   19.95    7.59
   9  10   2   13.66    5.73
   9 -10  -2   15.88    4.58
  -9  10  -2   20.21    4.51
   9  10   2   19.82    3.03
  -9 -10  -3    2.69    4.71
   9  10  -3   -1.21    3.83
  -9 -10  -3   13.08    4.24
  -9  10   3   -0.23    5.66
   9  10  -3    2.68    4.07
   9 -10   3    2.78    3.64
   9 -10   3   -1.76    4.29
  -9 -10  -3    6.55    5.39
   9 -10  -3    5.16    4.26
   9  10   3    2.10    5.44
   9  10   3    7.31    2.62
  -9 -10   3    7.91    3.62
  -9  10  -3    4.37    3.95
  -9  10  -3    3.27    6.06
   9  10   3    4.28    2.98
  -9  10   4    7.41    5.88
  -9 -10  -4   10.95    5.49
   9  10  -4   10.06    4.44
  -9 -10  -4   10.74    3.94
  -9 -10  -4   10.09    5.28
   9 -10   4   12.96    4.75
   9  10  -4   15.49    5.86
   9 -10   4    4.50    4.04
  -9  10  -4    6.06    4.15
   9 -10  -4   11.48    4.69
  -9  10  -4   19.49    6.37
   9  10   4   12.31    3.31
  -9 -10   4    7.20    3.58
   9  10   4    7.48    5.55
   9  10  -5    6.23    4.84
   9 -10   5   -2.38    4.12
  -9 -10  -5   12.85    5.92
  -9 -10  -5    5.18    5.76
  -9  10   5   -3.20    5.50
  -9 -10  -5   11.92    4.28
   9  10  -5    8.17    6.11
   9 -10   5   -6.40    4.59
  -9 -10   5   -2.57    3.77
   9  10   5    1.52    5.96
   9 -10  -5    4.27    4.76
   9 -10  -5    7.01    3.72
  -9  10  -5   14.68    6.23
  -9 -10   5    4.18    3.05
   9 -10   6    0.28    4.91
  -9 -10  -6   12.82    6.23
  -9 -10  -6   15.15    6.53
  -9  10   6   -5.57    5.66
   9  10  -6    7.40    5.36
   9  10  -6    8.02    6.67
  -9 -10  -6    6.40    4.30
   9 -10   6    2.05    4.54
  -9  10  -6    9.43    6.32
   9 -10  -6    3.95    3.75
   9 -10  -6   -1.24    4.77
  -9 -10   6    9.33    5.45
  -9 -10   6    0.60    3.26
  -9 -10   6   -0.38    4.24
   9  10   6   10.96    6.79
  10  10   0    3.08    3.03
  10  10   0    2.53    4.33
  10 -10   0    4.63    4.46
  10  10   0    8.26    3.63
 -10  10   0    1.75    4.03
 -10  10   0    9.81    7.81
 -10  10   1    6.39    6.79
  10 -10   1    9.74    3.32
  10  10  -1    6.58    3.79
 -10 -10  -1    0.67    4.25
 -10  10   1    5.58    4.01
 -10 -10  -1    6.50    5.26
  10  10  -1    6.38    4.52
  10  10   1    4.28    3.46
  10 -10  -1    2.08    4.36
 -10  10  -1    2.42    4.15
  10  10   1   -0.26    4.52
 -10  10  -1    8.10    7.39
  10  10   1    6.29    2.99
  10  10  -2   10.80    4.63
 -10 -10  -2   12.60    5.54
  10 -10   2    6.65    3.41
 -10  10   2    3.96    6.47
 -10 -10  -2    6.76    4.08
 -10  10   2    6.22    3.86
 -10 -10  -2    8.35    4.61
  10  10  -2    4.03    3.82
  10  10   2   11.71    3.41
  10  10   2   10.75    5.66
 -10  10  -2    4.60    4.20
 -10  10  -2    5.96    7.04
  10  10   2    8.76    2.92
  10 -10  -2    8.14    4.38
  10  10  -3    6.95    4.18
 -10  10   3    2.92    5.89
 -10 -10  -3   13.67    5.61
  10  10  -3    8.49    4.23
  10 -10   3   11.57    4.70
  10 -10   3   11.88    3.86
 -10 -10  -3   14.13    4.14
 -10  10   3    8.24    3.89
 -10 -10  -3    9.74    5.11
  10  10   3    7.88    2.73
 -10  10  -3   11.78    6.18
  10  10   3   11.77    3.22
  10  10   3    8.99    5.65
  10 -10  -3    8.47    4.43
 -10  10  -3    6.09    4.22
  10  10  -4    2.47    4.36
  10 -10   4    3.38    4.69
  10  10  -4    2.69    4.22
 -10 -10  -4    9.41    4.27
  10 -10   4    3.05    3.93
 -10 -10  -4    7.15    5.54
 -10  10   4   -1.18    5.73
 -10 -10  -4   11.53    5.93
  10  10  -4   15.75    5.69
  10  10   4    0.10    3.17
  10 -10  -4    6.86    4.68
  10  10   4    5.83    5.61
 -10  10  -4    3.83    4.19
 -10 -10   4    8.64    3.83
  10  10   4    8.73    2.73
 -10  10  -4   15.82    6.29
 -10 -10  -5   13.45    6.34
 -10 -10  -5   13.60    6.33
  10 -10   5    5.99    4.47
 -10  10   5    7.83    6.27
 -10 -10  -5   16.05    4.55
  10  10  -5   18.01    6.75
  10 -10   5    5.78    4.87
  10  10  -5   14.79    5.34
  10 -10  -5    7.32    5.08
 -10 -10   5    8.95    4.53
  10  10   5    8.57    6.34
  10  10   5   12.54    3.58
 -10  10  -5   20.56    6.40
 -10 -10   5    7.68    3.10
 -10  10   6   -3.56    5.87
  10  10  -6    4.37    5.32
  10  10  -6    6.49    6.58
 -10 -10  -6   13.90    6.44
 -10 -10  -6   13.39    6.40
 -10 -10  -6    6.26    4.25
  10 -10   6   -0.88    4.97
  10 -10   6    4.02    4.58
 -10 -10   6    4.62    4.79
 -10  10  -6   17.96    6.67
  10 -10  -6   -0.41    4.92
  10  10   6    3.97    6.51
 -10 -10   6    8.45    3.57
 -10 -10   6    8.25    5.67
  11  10   0   14.77    3.35
 -11 -10   0   14.45    4.96
  11 -10   0   18.49    4.93
 -11  10   0   11.24    4.24
  11  10   0   15.81    3.84
 -11  10   0   16.32    7.87
  11  10   0   15.20    4.74
  11  10  -1   24.96    4.21
 -11 -10  -1   25.30    5.66
 -11  10   1   18.55    4.36
  11  10  -1   25.48    3.76
  11  10  -1   24.41    5.07
 -11 -10  -1   30.35    5.11
  11 -10   1   26.48    3.53
 -11 -10  -1   34.92    5.05
 -11  10   1   18.82    7.25
 -11  10  -1   27.78    4.80
  11  10   1   24.85    5.47
 -11  10  -1   29.05    7.87
  11 -10  -1   23.94    4.97
  11  10   1   27.13    4.01
  11  10   1   29.41    3.59
 -11  10   2   11.34    6.85
 -11 -10  -2   16.66    5.58
  11  10  -2   13.24    4.61
  11  10  -2   20.17    4.27
 -11 -10  -2   17.94    4.51
  11 -10   2   17.31    3.75
 -11 -10  -2   24.08    5.31
 -11  10   2   15.84    4.44
  11  10   2   24.63    5.85
 -11  10  -2   27.83    7.13
  11  10   2   20.17    3.64
  11 -10  -2   18.72    4.94
  11  10   2   13.36    3.10
 -11  10  -2   20.65    4.72
 -11  10   3    8.55    4.11
 -11 -10  -3   14.31    5.36
  11  10  -3   10.98    4.44
  11  10  -3   12.25    4.49
  11 -10   3    6.31    4.43
 -11 -10  -3   11.23    5.65
 -11 -10  -3   20.08    4.45
 -11  10   3    9.92    6.29
  11 -10   3    7.32    3.72
  11  10   3   11.56    3.43
  11  10   3   10.92    2.99
  11  10   3   11.46    5.94
 -11  10  -3    9.06    4.44
  11 -10  -3    5.93    4.74
 -11  10  -3   18.48    6.44
  11  10  -4    3.78    4.64
  11  10  -4    7.34    4.79
 -11 -10  -4    7.63    6.22
 -11 -10  -4   19.46    6.26
  11 -10   4   -1.26    4.76
 -11 -10  -4    3.64    4.22
  11 -10   4    4.49    4.05
 -11  10   4    3.84    4.42
 -11  10   4   -0.33    6.18
 -11  10  -4    6.52    4.68
 -11  10  -4   16.92    6.20
  11  10   4    4.19    5.92
  11 -10  -4    1.21    4.65
 -11 -10   4    7.13    3.74
  11  10   4    9.48    2.85
  11  10   4    8.78    3.57
 -11  10   5    4.50    4.69
 -11 -10  -5    7.21    4.41
  11  10  -5    9.77    5.24
  11 -10   5    5.26    5.39
 -11  10   5    0.78    6.18
 -11 -10  -5   13.23    6.52
 -11 -10  -5    6.88    6.17
  11 -10   5    6.60    4.45
 -11 -10   5    5.11    4.36
  11  10   5    8.27    3.59
  11 -10  -5    2.39    5.05
 -11  10  -5   18.97    6.21
 -11  10  -5    4.87    4.88
  11  10   5    0.45    6.27
 -11 -10   5    7.65    2.98
  11 -10   6   -1.40    5.02
  11 -10   6    2.81    4.86
 -11 -10  -6   14.18    6.52
 -11 -10  -6   14.10    6.77
 -11 -10  -6   12.07    4.68
  11  10  -6   12.74    5.82
 -11  10   6   -2.08    6.23
 -11 -10   6    3.22    4.66
 -11 -10   6    2.66    5.53
  11 -10  -6    7.57    5.47
 -11  10  -6   10.17    6.21
  11  10   6    5.19    3.66
 -11 -10   6    5.78    3.41
  11  10   6    1.82    6.82
 -12  10   0    5.50    4.10
 -12 -10   0    6.52    4.88
 -12 -10   0   11.85    4.41
  12  10   0    8.40    3.24
  12  10   0    8.97    4.37
 -12  10   0    6.65    7.43
  12  10   0    7.10    3.64
 -12 -10  -1    2.36    5.03
  12  10  -1    4.92    4.32
  12  10  -1    3.50    3.35
  12  10  -1    9.56    3.82
  12 -10   1    9.90    3.16
 -12 -10  -1   13.25    4.71
 -12  10   1    7.24    4.19
 -12 -10  -1    0.37    4.26
 -12  10   1   -3.34    6.81
  12  10   1    2.47    4.81
 -12  10  -1    6.80    4.33
  12  10   1    8.99    3.65
  12 -10  -1    6.45    4.73
  12  10   1    7.68    3.11
 -12  10  -1    7.30    6.80
  12 -10   2    2.26    3.76
  12  10  -2   10.20    3.91
 -12 -10  -2   14.96    5.75
 -12 -10  -2    6.23    4.95
 -12 -10  -2    5.01    4.32
 -12  10   2    3.48    6.67
  12 -10   2   10.49    3.43
 -12  10   2    6.01    4.03
  12  10  -2    8.87    4.55
  12  10   2    9.25    3.51
  12  10   2    5.86    2.89
  12  10   2   11.38    5.24
 -12  10  -2    7.09    4.41
 -12  10  -2   16.04    6.76
  12 -10  -2    6.87    4.72
 -12 -10  -3    2.69    4.37
 -12  10   3    3.72    4.15
 -12 -10  -3    7.55    5.75
  12  10  -3    2.63    4.39
 -12  10   3   -5.07    6.15
  12  10  -3    6.71    4.63
  12 -10   3    2.99    3.79
 -12 -10  -3    5.16    5.77
  12 -10   3    0.01    4.44
  12  10   3    5.00    3.38
 -12  10  -3    3.58    4.60
  12 -10  -3   -1.80    4.63
 -12  10  -3    9.02    6.15
  12  10   3    6.12    2.93
  12  10   3    3.04    5.65
 -12  10   4   -1.61    6.28
  12 -10   4    4.20    4.84
 -12  10   4   -0.43    4.44
 -12 -10  -4   13.55    4.71
  12 -10   4    3.59    3.99
  12  10  -4    9.11    5.02
 -12 -10  -4   -0.71    6.18
  12  10  -4    1.97    4.78
 -12 -10  -4    6.37    6.11
  12  10   4    8.56    3.68
  12 -10  -4    1.30    4.94
 -12 -10   4    4.13    3.86
  12  10   4    4.06    2.83
  12  10   4   -0.31    6.06
 -12  10  -4   10.71    5.79
 -12  10  -4    5.20    4.84
  12 -10   5    4.44    4.42
 -12 -10  -5    2.86    4.54
 -12 -10  -5    7.50    6.54
 -12 -10  -5   15.27    6.64
 -12  10   5   -1.68    6.41
 -12  10   5    5.94    5.17
  12 -10   5    0.79    5.45
  12  10  -5   11.22    5.51
 -12  10  -5   14.13    5.78
  12 -10  -5   -1.37    4.86
 -12 -10   5    0.20    4.34
  12  10   5    9.53    3.62
 -12  10  -5   -0.56    3.97
 -12  10  -5    1.31    4.98
  12  10   5    4.48    6.45
 -13  10   0   22.88    5.22
 -13 -10   0   36.74    5.35
  13 -10   0   27.47    3.50
 -13  10   0   24.05    8.26
  13  10   0   26.90    3.85
  13  10   0   31.36    4.40
  13  10   0   28.89    5.44
 -13 -10   0   31.87    5.81
 -13 -10  -1   24.99    5.28
  13 -10   1   20.94    3.59
  13  10  -1   25.21    5.28
  13  10  -1   21.32    4.04
 -13 -10  -1   27.15    6.14
 -13  10   1   15.73    4.65
  13  10  -1   29.19    4.54
 -13  10   1    9.10    7.70
 -13 -10  -1   31.10    5.13
  13 -10  -1   19.72    5.37
 -13  10  -1   24.40    7.50
 -13 -10   1   24.76    4.90
  13  10   1   23.45    5.61
  13  10   1   11.99    3.40
  13  10   1   25.14    4.25
 -13  10  -1   18.25    4.95
 -13 -10  -2   17.03    5.70
  13  10  -2   17.61    5.32
  13 -10   2   14.70    3.72
 -13  10   2   15.43    4.59
 -13  10   2    8.47    7.16
 -13 -10  -2   17.41    5.44
  13  10  -2   17.95    4.45
 -13 -10  -2   20.18    6.21
 -13  10  -2   26.12    6.80
  13  10   2   18.48    3.95
 -13  10  -2   11.87    5.05
  13 -10  -2   16.22    5.26
  13  10   2   16.92    6.06
  13  10   2   13.01    3.24
 -13 -10  -3   11.66    4.76
 -13 -10  -3   14.59    6.44
 -13  10   3   -3.32    6.95
  13  10  -3   12.29    5.01
  13  10  -3   13.38    4.91
  13 -10   3   12.70    4.12
 -13 -10  -3   21.54    6.32
 -13  10   3   15.23    4.79
  13 -10   3    5.81    4.48
  13  10   3   17.49    3.92
  13 -10  -3   14.68    5.58
 -13  10  -3   29.01    6.82
  13  10   3   12.06    3.25
  13  10   3   16.37    6.47
 -13  10  -3    7.58    4.98
  13 -10   4   13.28    5.19
 -13  10   4   10.94    5.04
 -13 -10  -4   15.74    6.66
  13  10  -4   10.21    5.41
 -13 -10  -4   22.11    7.06
  13 -10   4    4.75    4.23
 -13  10   4   -1.95    6.38
  13  10  -4   16.51    5.56
 -13 -10  -4   11.86    4.85
  13  10   4   11.42    3.83
  13  10   4    6.99    6.40
 -13  10  -4    3.11    5.00
  13  10   4    9.04    3.13
  13 -10  -4    2.80    5.31
 -13  10  -4   22.02    6.41
 -13 -10   4   12.91    4.46
 -13 -10  -5   11.66    6.57
 -13  10   5   -1.01    6.73
 -13 -10  -5    6.63    5.07
  13 -10   5    0.92    5.48
  13 -10   5    4.71    4.41
 -13 -10  -5   11.26    6.93
 -13  10   5    4.96    5.06
  13  10  -5   10.83    5.75
 -13 -10   5    5.65    4.61
  13 -10  -5   -2.75    5.27
 -13  10  -5   18.86    5.90
  13  10   5    8.00    3.71
  13  10   5   10.81    4.53
 -13  10  -5    2.58    5.17
 -13  10  -5   -2.01    4.14
  13  10   5    5.13    6.54
 -14  10   0   -3.59    7.10
  14  10   0   11.25    4.05
 -14 -10   0    9.51    4.78
 -14  10   0    8.28    4.76
  14 -10   0    3.47    2.87
  14  10   0    4.98    4.56
 -14 -10   0    5.25    5.01
 -14 -10   0    9.96    5.57
  14  10   0    3.48    3.28
 -14 -10  -1    0.06    4.92
 -14 -10  -1    5.99    5.28
  14  10  -1   14.37    5.08
  14  10  -1    5.01    4.04
 -14 -10  -1    4.68    5.76
 -14  10   1   -2.33    4.36
  14 -10   1    5.36    3.22
  14  10  -1    3.99    3.69
 -14  10   1  -11.41    7.24
 -14 -10   1    2.07    4.63
 -14  10  -1    0.86    4.52
 -14  10  -1   12.42    6.92
  14  10   1    7.00    3.98
  14  10   1    5.70    5.24
  14  10   1    2.44    3.28
  14  10  -2    6.87    4.98
 -14 -10  -2    5.72    5.78
  14  10  -2   11.85    4.56
 -14  10   2   -5.86    7.13
 -14 -10  -2   11.72    6.45
 -14 -10  -2    5.79    5.18
  14 -10   2   10.94    3.67
 -14  10   2    3.14    4.57
 -14  10  -2    6.43    4.83
 -14  10  -2   22.67    6.64
  14  10   2   11.80    3.39
  14  10   2   14.80    3.96
  14 -10  -2   12.69    5.31
  14  10   2   13.19    5.85
  14 -10   3    4.32    4.24
 -14  10   3    0.08    4.44
 -14 -10  -3   -2.30    4.47
 -14 -10  -3   10.48    6.59
  14  10  -3    4.45    4.90
  14  10  -3    3.67    4.98
 -14  10   3   -7.76    7.08
  14 -10   3    8.38    3.81
 -14 -10  -3    8.92    6.36
  14  10   3    3.10    3.03
  14  10   3    9.20    3.82
 -14  10  -3   18.23    6.06
 -14  10  -3    2.77    4.81
  14 -10  -3   -0.32    5.19
  14  10   3   12.98    6.35
 -14 -10  -4   17.45    6.71
 -14  10   4   -2.61    6.80
 -14  10   4    6.50    4.94
 -14 -10  -4    5.44    4.87
  14 -10   4    1.03    4.64
  14  10  -4   11.39    5.40
 -14 -10  -4   10.72    6.83
  14  10  -4    1.67    5.28
  14 -10   4    2.52    4.01
 -14  10  -4   -3.02    4.86
  14  10   4   10.53    3.95
  14  10   4    4.95    3.08
 -14 -10   4    9.45    4.39
  14 -10  -4    2.33    5.50
  14  10   4    2.67    6.34
  15  10   0   29.45    5.65
 -15  10   0   17.83    7.86
 -15 -10   0   21.74    5.45
 -15 -10   0   30.52    6.42
  15  10   0   19.07    3.94
  15 -10   0   28.04    3.64
 -15  10   0   19.74    5.38
  15  10   0   31.86    4.92
 -15 -10   0   21.65    5.89
 -15 -10  -1    9.58    5.80
 -15  10   1   -3.21    7.91
  15  10  -1   12.11    3.95
  15  10  -1   22.17    5.81
 -15 -10  -1   13.72    6.20
 -15  10   1    7.39    5.16
 -15 -10  -1   11.74    5.37
  15 -10   1   18.69    3.59
  15  10  -1   10.12    4.44
 -15 -10   1   14.77    5.03
 -15  10  -1   11.44    5.17
  15  10   1   12.96    3.68
  15  10   1   21.15    4.48
 -15  10  -1   22.81    7.21
  15  10   1   12.45    5.50
  15  10  -2   16.33    5.61
 -15 -10  -2   11.18    6.31
  15 -10   2    8.29    3.62
 -15  10   2    7.37    5.10
  15  10  -2   14.40    4.97
  15 -10   2   17.24    4.17
 -15 -10  -2   14.36    6.30
 -15  10   2   -7.22    7.21
 -15 -10  -2    9.72    5.42
  15 -10  -2   12.74    5.79
  15  10   2   15.01    4.29
 -15  10  -2   26.24    6.59
 -15  10  -2    3.35    5.06
  15  10   2   12.88    3.50
  15  10   2   14.93    6.10
  15 -10   3    7.20    4.67
 -15  10   3   -4.30    7.37
 -15 -10  -3   14.07    6.64
 -15  10   3    9.21    5.35
  15  10  -3   20.65    5.52
 -15 -10  -3   19.62    5.72
  15 -10   3    9.65    3.93
  15  10  -3   10.29    5.15
 -15 -10  -3   11.78    6.84
  15  10   3   14.45    6.33
  15 -10  -3    5.90    5.54
 -15  10  -3    5.70    5.00
  15  10   3   12.33    3.46
  15  10   3   16.05    4.09
  15 -10   4    9.34    4.22
 -15 -10  -4   11.80    5.34
 -15  10   4    8.47    5.39
 -15 -10  -4   21.65    7.24
  15 -10   4    9.26    5.27
  15  10  -4   12.61    5.76
 -15  10   4   -6.75    7.02
 -15 -10  -4   15.60    7.37
  15  10  -4   15.34    6.02
  15 -10  -4    4.86    5.80
  15  10   4   13.37    3.56
  15  10   4   11.23    4.20
  15  10   4    6.60    7.00
 -15  10  -4   -0.56    5.28
 -16 -10   0    5.13    6.12
 -16 -10   0    7.37    5.12
  16 -10   0    9.44    3.24
  16  10   0    5.66    3.70
 -16  10   0    1.11    5.01
 -16 -10   0    9.49    6.61
  16  10   0   17.93    5.49
  16  10   0   12.60    4.50
  16  10  -1   12.14    4.15
  16  10  -1   12.91    4.43
 -16 -10  -1    2.87    6.50
 -16  10   1    2.91    5.16
 -16 -10  -1   11.04    5.92
  16 -10   1    9.64    3.33
 -16 -10  -1    1.25    5.29
  16  10  -1   15.83    5.30
 -16  10   1  -12.02    8.72
  16  10   1    8.88    4.40
  16  10   1    6.18    3.63
  16  10   1   18.86    5.72
 -16  10  -1    1.67    5.05
 -16  10   2   -3.45    4.78
  16 -10   2    5.40    3.79
 -16 -10  -2    2.66    5.38
 -16 -10  -2    6.69    6.64
 -16 -10  -2    2.46    6.53
  16  10  -2   15.83    5.50
  16 -10   2    4.10    3.63
  16  10  -2    6.18    4.65
 -16  10  -2   -2.41    4.94
  16  10   2   10.54    6.23
  16  10   2   12.41    4.31
  16  10   2    6.93    3.36
  16  10  -3    6.87    5.29
 -16 -10  -3   12.83    7.01
  16  10  -3    8.67    5.36
  16 -10   3    6.08    4.51
 -16 -10  -3    4.10    5.59
 -16  10   3   -5.37    5.06
 -16 -10  -3    6.53    6.92
  16 -10   3    1.94    3.74
  16  10   3    2.62    3.19
  16  10   3   12.00    6.94
 -16  10  -3   -2.77    5.22
  16 -10  -3   -0.06    5.72
  16  10   3   10.71    4.08
 -17  10   0    4.43    5.31
  17  10   0   17.17    5.59
 -17 -10   0    2.39    5.15
  17  10   0   16.66    4.74
  17 -10   0    2.24    4.95
  17  10   0   11.77    3.93
  17  10  -1   12.53    4.36
  17 -10   1    7.61    3.36
  17  10  -1   15.01    4.89
 -17 -10  -1    8.12    6.07
 -17 -10  -1    2.92    6.69
 -17  10   1    1.56    5.36
  17  10  -1   23.16    5.59
 -17 -10  -1    4.86    5.70
  17  10   1   11.20    5.37
  17  10   1    8.40    3.80
  17  10   1    5.42    4.38
 -17  10  -1   -1.82    5.35
   0  11   0    4.57    5.93
   0 -11  -1    9.73    2.94
   0 -11  -1    9.36    2.82
   0  11  -1    4.86    5.69
   0 -11  -1   13.34    3.31
   0  11   1   12.43    5.20
   0 -11   1   12.60    3.14
   0 -11   2   14.12    3.95
   0  11  -2    9.86    5.59
   0 -11  -2   15.13    3.82
   0 -11   2   15.62    3.41
   0  11   2   17.17    5.74
   0 -11  -2   12.46    3.29
   0 -11  -2   16.15    3.36
   0 -11  -3   -0.58    3.44
   0  11   3    5.00    5.11
   0 -11   3    3.36    3.93
   0 -11  -3    1.85    3.20
   0 -11  -3    6.25    4.24
   0 -11   3    1.79    3.47
   0 -11   3    6.47    3.95
   0  11  -3    0.49    3.80
   0  11  -3    3.18    5.42
   0  11  -4    8.03    6.08
   0  11  -4    5.38    4.64
   0 -11  -4    1.53    4.11
   0  11   4    3.32    5.24
   0 -11   4    5.76    3.76
   0 -11  -4    3.16    4.65
   0 -11   4    6.58    4.62
   0 -11   4    9.16    4.47
   0 -11  -4    3.34    3.53
   0 -11   5   13.58    4.41
   0  11   5   20.46    5.27
   0 -11  -5   24.85    4.10
   0 -11   5   13.80    3.84
   0  11  -5   20.58    5.48
   0 -11   5   18.61    5.16
   0 -11  -5   25.08    5.15
   0  11  -5   22.40    6.66
   0 -11  -5   30.29    5.59
   0  11   5   19.00    6.26
   0 -11  -6   26.64    5.94
   0 -11  -6   18.61    5.78
   0  11   6    8.10    5.64
   0 -11   6    8.22    4.55
   0 -11   6    9.50    5.37
   0 -11  -6   22.50    4.32
   0  11   6   17.34    6.49
   0 -11   6    8.47    3.95
   0  11  -6   21.06    7.03
   0 -11  -7   18.45    5.89
   0 -11  -7   23.55    5.91
   0 -11   7    3.49    4.53
   0 -11   7   -3.54    5.81
   0 -11   7    2.45    4.81
   0  11  -7   17.81    7.43
   0  11   7    2.48    6.34
   0 -11  -7   15.79    3.94
   0  11   7   -3.64    6.14
  -1  11   0    9.38    6.00
   1 -11   0    3.51    2.73
   1  11   0   12.29    6.00
  -1 -11  -1    8.62    2.91
  -1 -11  -1    9.70    3.34
  -1  11   1   11.49    5.15
  -1 -11  -1    9.86    2.92
   1 -11   1   11.09    3.17
   1  11  -1    9.08    5.48
   1 -11  -1    9.46    3.14
  -1  11  -1   11.97    6.05
   1  11   1   14.32    5.32
  -1 -11   1   11.50    3.06
   1 -11  -1   16.93    3.54
   1 -11  -1    9.77    2.81
   1  11  -2   11.03    5.80
  -1 -11  -2    9.76    3.26
   1 -11   2   14.29    3.59
   1 -11   2   14.82    4.00
   1  11  -2   10.39    3.61
  -1  11   2   16.18    5.76
  -1 -11  -2   11.12    3.94
  -1 -11  -2   10.00    3.43
   1  11   2   16.06    4.28
  -1 -11   2   12.74    3.35
   1 -11  -2   11.18    3.27
  -1  11  -2    5.41    5.49
  -1 -11   2   16.21    3.88
   1 -11  -2   12.37    3.23
   1 -11  -2   12.98    3.74
   1  11   2   16.87    5.86
   1  11  -3    6.77    4.04
   1  11  -3    2.73    5.63
   1 -11   3    9.78    4.24
  -1  11   3    4.92    5.20
   1 -11   3    6.76    3.56
  -1 -11  -3    7.47    3.42
  -1 -11  -3    7.29    4.34
  -1 -11  -3    0.50    3.61
  -1 -11   3   11.10    4.24
   1  11   3    5.45    5.08
  -1  11  -3   -0.86    5.17
  -1 -11   3    6.88    3.63
  -1 -11   3   10.89    4.08
   1  11   3    6.84    4.43
   1 -11  -3    6.95    4.09
   1 -11  -3    2.67    3.41
   1 -11  -3    6.80    3.15
   1  11  -4    6.11    4.84
  -1 -11  -4    5.10    4.23
   1  11  -4    9.47    6.38
  -1 -11  -4   10.73    3.77
  -1 -11  -4    9.18    4.91
   1 -11   4    9.77    4.58
   1 -11   4   10.89    4.60
  -1  11   4    7.94    5.52
   1 -11   4    9.57    3.98
   1 -11  -4    5.26    4.50
  -1 -11   4   10.15    3.77
  -1  11  -4   10.23    4.76
   1  11   4   12.69    5.15
   1 -11  -4   10.57    4.19
  -1 -11   4   14.71    4.87
  -1  11  -4    9.36    6.14
  -1 -11   4   10.79    4.31
   1 -11  -4    8.89    3.52
   1  11   4    5.10    5.50
   1 -11   5   15.09    3.95
   1  11  -5   20.03    5.34
   1 -11   5   28.78    5.63
  -1  11   5   21.81    6.23
  -1  11   5   20.24    5.10
   1 -11   5   19.31    4.54
   1  11  -5   24.15    6.77
  -1 -11  -5   22.85    5.31
  -1 -11  -5   28.48    5.23
  -1 -11  -5   26.81    4.08
   1 -11  -5   23.83    4.02
   1  11   5   19.55    5.56
   1  11   5   22.78    6.26
   1 -11  -5   28.52    5.26
  -1  11  -5   26.19    6.86
  -1 -11   5   18.06    4.00
  -1 -11   5   18.60    4.72
   1 -11  -5   30.03    5.19
  -1 -11   5   22.89    5.47
   1 -11   6    3.16    3.99
  -1 -11  -6   12.53    5.48
  -1  11   6    1.48    5.38
  -1 -11  -6   18.67    4.04
  -1 -11  -6   15.56    5.63
  -1  11   6    4.88    6.20
   1 -11   6    7.32    4.57
   1 -11   6    5.67    5.62
   1  11  -6   14.75    6.82
   1  11   6    2.94    6.12
   1  11   6    4.65    5.72
   1 -11  -6   12.04    5.40
  -1 -11   6    4.80    4.39
   1 -11  -6    7.28    3.82
  -1  11  -6    7.20    6.19
  -1 -11   6    2.58    5.35
  -1 -11   6    4.37    3.90
   1 -11  -6    4.53    5.03
  -1 -11  -7   12.92    3.99
  -1 -11  -7   13.76    5.61
   1  11  -7    3.15    6.66
  -1 -11  -7   19.54    5.82
   1 -11   7   -0.83    5.50
   1 -11   7    5.08    5.27
  -1  11   7   -0.84    6.47
   1 -11   7    1.71    4.45
  -1  11   7   -7.21    5.95
  -1 -11   7    1.67    3.90
  -1 -11   7    0.70    4.69
   1 -11  -7    7.56    5.60
  -1 -11   7    6.37    5.82
  -1  11  -7    3.94    6.40
   1 -11  -7    8.51    3.84
   1  11   7    2.03    6.43
   1 -11  -7    6.82    5.64
   1  11   7   -2.64    6.11
   2  11   0    9.34    6.17
  -2  11   0    5.28    5.85
   2  11   0    3.42    3.02
   2 -11   0    7.63    3.02
  -2  11   1   11.92    5.23
  -2 -11  -1   10.74    3.17
   2  11  -1    6.55    3.40
  -2 -11  -1    8.68    3.51
   2  11  -1    3.21    5.33
   2 -11  -1   12.39    3.23
   2 -11  -1    9.74    3.21
  -2 -11   1   13.49    3.10
   2  11   1   14.21    5.53
  -2  11  -1    9.96    6.06
   2 -11  -1   12.25    2.87
   2  11   1    6.72    3.72
  -2 -11  -2    9.04    4.11
  -2 -11  -2    8.30    3.50
   2  11  -2   10.72    5.46
   2 -11   2   10.83    3.59
  -2  11   2   11.20    5.49
   2  11  -2    8.69    3.77
  -2 -11  -2    5.29    3.43
  -2 -11   2    9.07    3.61
  -2  11  -2    2.16    5.50
   2 -11  -2    8.91    3.57
  -2 -11   2   10.73    3.19
   2 -11  -2   14.09    3.16
   2  11   2   11.18    5.68
   2  11   2   11.21    4.37
   2 -11  -2    8.90    3.72
  -2 -11  -3    6.80    3.96
   2  11  -3   10.82    4.24
  -2  11   3   14.43    5.72
   2  11  -3    9.65    5.96
   2 -11   3    9.35    4.28
  -2 -11  -3   15.24    4.91
   2 -11   3   15.08    3.89
  -2 -11  -3    8.82    3.62
  -2 -11   3   17.25    4.11
   2 -11  -3    9.87    3.55
  -2 -11   3   12.47    3.54
   2  11   3   11.57    4.70
  -2  11  -3   12.62    5.75
   2  11   3   13.84    5.47
   2 -11  -3    9.04    3.23
   2 -11  -3   15.18    4.21
  -2 -11  -4    5.08    3.87
   2  11  -4   10.06    4.87
  -2 -11  -4    6.75    5.17
   2  11  -4   11.30    6.27
   2 -11   4    7.08    4.01
   2 -11   4    7.46    4.35
   2 -11   4   11.85    4.63
  -2 -11  -4    7.87    4.43
  -2  11   4   10.81    5.69
   2  11   4    5.64    5.36
   2  11   4    7.37    5.29
  -2 -11   4    7.37    4.44
   2 -11  -4    7.19    4.61
   2 -11  -4   10.29    3.48
  -2  11  -4    4.40    5.79
  -2 -11   4    7.35    3.73
  -2 -11   4   12.69    4.80
   2 -11  -4    9.10    4.21
   2  11  -5   12.56    5.04
  -2 -11  -5   14.30    4.04
   2 -11   5   -0.07    3.60
  -2  11   5   10.13    5.86
  -2 -11  -5   15.05    4.94
   2 -11   5    4.99    4.26
   2  11  -5   16.77    6.45
   2 -11   5    8.50    4.79
  -2 -11  -5   12.70    5.13
   2 -11  -5   11.22    4.77
   2 -11  -5    9.09    3.73
   2  11   5    9.01    5.60
   2 -11  -5   13.86    4.83
  -2  11  -5    7.97    5.72
  -2 -11   5    2.50    3.81
  -2 -11   5    8.72    5.03
   2  11   5    5.05    5.20
  -2 -11   5    6.35    3.45
  -2 -11  -6   19.62    6.12
  -2 -11  -6   17.81    4.03
   2 -11   6    5.02    4.82
   2  11  -6   11.16    6.50
   2 -11   6    5.37    5.36
  -2  11   6   11.45    6.54
  -2  11   6    5.61    5.25
   2 -11   6    3.93    4.23
   2  11  -6    8.40    5.53
  -2 -11  -6   23.34    5.87
  -2 -11   6    9.39    5.56
   2  11   6    4.02    5.94
   2 -11  -6    9.61    5.35
  -2 -11   6    6.25    3.87
  -2 -11   6    3.62    4.38
   2 -11  -6   13.13    5.64
   2 -11  -6   13.20    4.21
  -2  11  -6   13.60    6.55
   2  11   6   11.90    6.27
  -2  11   7   -3.90    5.81
   2 -11   7    2.53    5.40
   2  11  -7    5.24    6.68
  -2 -11  -7    9.53    3.67
  -2 -11  -7   15.66    5.85
   2 -11   7    6.06    4.86
  -2 -11  -7   16.49    5.95
  -2  11   7    5.08    6.86
   2 -11   7    4.50    6.09
  -2 -11   7    1.41    4.01
   2 -11  -7   11.54    5.76
   2 -11  -7   10.50    3.97
  -2 -11   7    8.90    6.04
   2  11   7    0.45    6.25
   2 -11  -7   12.76    5.96
  -2  11  -7   13.30    6.78
   2  11   7   -2.71    6.40
  -2 -11   7    8.46    5.22
   3 -11   0    8.90    3.11
   3  11   0    9.18    5.86
  -3  11   0   13.73    6.11
   3  11   0    6.22    3.27
   3  11  -1   14.42    5.81
  -3  11   1   19.27    5.48
   3  11  -1   22.01    3.80
  -3 -11  -1   13.02    3.88
   3  11   1   17.43    5.88
   3 -11  -1   19.53    3.47
   3  11   1   15.14    4.06
   3 -11  -1   22.47    3.02
  -3  11  -1   21.60    6.72
   3 -11  -1   17.20    3.62
  -3 -11   1   17.11    3.09
  -3 -11  -2   15.19    4.43
   3  11  -2   19.13    4.12
  -3  11   2   22.16    6.12
   3  11  -2   21.91    6.06
   3 -11   2   23.75    4.03
  -3 -11  -2   18.48    3.93
  -3 -11  -2   19.59    3.74
   3 -11  -2   23.79    3.41
  -3  11  -2   18.69    6.06
  -3 -11   2   24.77    3.86
   3  11   2   25.63    6.10
   3 -11  -2   23.11    4.00
   3  11   2   22.66    4.95
   3 -11  -2   20.64    4.13
  -3 -11   2   22.03    3.66
   3 -11   3   19.66    4.16
  -3 -11  -3   17.08    3.97
   3  11  -3   24.06    4.73
   3  11  -3   16.45    6.21
  -3  11   3   20.11    5.81
  -3 -11  -3   17.36    4.37
   3 -11   3   22.59    4.89
  -3 -11  -3   17.88    4.96
   3 -11  -3   22.57    4.37
  -3  11  -3   10.57    5.78
   3 -11  -3   22.82    4.55
   3 -11  -3   22.28    3.55
   3  11   3   22.88    5.79
  -3 -11   3   16.08    4.08
   3  11   3   19.27    5.12
  -3 -11   3   18.03    3.66
  -3  11   4    9.17    5.41
  -3 -11  -4    8.91    5.02
   3  11  -4    8.84    6.21
   3  11  -4   13.93    4.92
   3 -11   4   20.08    5.05
  -3 -11  -4   21.06    4.93
  -3 -11  -4   12.10    3.91
   3 -11   4    7.78    4.17
   3  11   4   12.18    5.65
   3  11   4   14.81    5.55
   3 -11  -4   19.12    4.68
   3 -11  -4   12.25    3.44
  -3 -11   4   12.64    3.71
  -3 -11   4   14.40    4.28
  -3 -11   4   14.25    4.89
   3 -11  -4   15.08    4.98
  -3  11  -4    8.61    6.02
  -3 -11  -5   16.77    5.26
   3 -11   5    2.78    4.56
   3 -11   5    5.62    3.94
   3  11  -5    7.29    4.96
  -3 -11  -5   12.86    5.25
   3  11  -5   18.22    6.55
  -3 -11  -5   13.74    3.79
   3 -11   5    7.30    4.79
  -3  11   5    8.55    5.66
   3 -11  -5   13.24    3.49
  -3 -11   5    8.42    4.16
  -3 -11   5    5.51    3.54
   3 -11  -5   14.28    4.76
   3  11   5    7.31    5.59
   3  11   5    9.87    5.42
   3 -11  -5    8.16    4.74
  -3  11  -5   13.87    5.80
  -3 -11   5    4.02    4.81
   3 -11   6    4.85    5.05
   3  11  -6   10.33    5.57
   3 -11   6    4.72    4.27
   3 -11   6    9.34    5.60
  -3 -11  -6   25.15    6.20
   3  11  -6    9.61    6.65
  -3  11   6    4.25    6.17
  -3 -11  -6   15.63    6.00
  -3 -11  -6   16.90    4.25
  -3  11  -6    5.97    6.18
   3  11   6    4.21    5.84
  -3 -11   6    2.30    4.16
  -3 -11   6    6.86    5.49
   3 -11  -6    7.93    5.34
   3 -11  -6   10.46    5.14
  -3 -11   6    8.46    3.84
   3 -11  -6    6.74    3.71
   3  11   6    0.61    6.01
  -3  11   7   -2.04    7.41
   3 -11   7    0.33    4.55
   3 -11   7    1.26    6.17
  -3  11   7    0.71    6.49
  -3 -11  -7   23.61    6.46
   3  11  -7    5.78    7.00
   3 -11   7    0.72    5.20
  -3 -11  -7   17.64    6.23
   3  11   7    2.61    6.89
  -3 -11   7    3.15    5.02
   3  11   7   -1.11    6.09
  -3 -11   7   10.43    6.03
   3 -11  -7    7.83    5.62
   3 -11  -7   12.72    5.55
  -3 -11   7    0.13    3.94
  -3  11  -7   15.21    6.97
   3 -11  -7   14.26    4.17
   4 -11   0   39.58    3.46
   4  11   0   37.73    4.98
   4 -11   0   50.33    4.59
  -4  11   0   37.67    7.21
   4  11   0   43.70    7.36
   4  11  -1   20.39    3.24
  -4  11   1   13.47    5.46
   4  11  -1   17.27    3.94
   4 -11   1   17.73    3.43
   4  11  -1   14.81    5.86
  -4 -11  -1   18.86    3.61
  -4 -11  -1   13.64    3.89
   4  11   1   14.96    4.39
   4  11   1   21.36    6.07
  -4 -11   1   22.12    3.61
  -4  11  -1   20.28    6.95
   4 -11  -1   21.30    3.84
   4 -11  -1   17.04    3.10
  -4  11  -1   18.00    3.33
  -4 -11  -2   22.23    4.05
   4  11  -2   19.48    5.93
  -4  11   2   27.07    6.33
  -4 -11  -2   20.11    4.53
   4 -11   2   13.65    3.70
   4  11  -2   20.68    4.32
  -4 -11  -2   23.16    3.91
  -4 -11   2   20.80    3.91
  -4 -11   2   18.70    3.41
   4 -11  -2   23.46    4.21
   4  11   2   20.46    5.97
   4 -11  -2   16.71    3.08
   4 -11  -2   22.63    3.91
   4  11   2   20.04    5.18
  -4  11  -2   15.23    6.34
   4  11  -3   17.54    6.18
  -4 -11  -3   17.32    4.95
   4  11  -3   23.74    4.85
   4 -11   3   21.56    4.26
  -4  11   3   18.97    5.91
  -4 -11  -3   20.72    4.07
  -4 -11  -3   19.30    4.36
   4 -11   3   27.19    5.28
  -4  11  -3   17.22    6.13
   4 -11  -3   20.37    3.50
  -4 -11   3   21.21    4.23
  -4 -11   3   23.83    3.91
   4 -11  -3   23.51    4.34
   4  11   3   17.27    5.63
   4  11   3   24.84    5.54
   4 -11  -3   28.61    4.79
  -4 -11  -4   23.95    5.13
  -4 -11  -4   19.67    3.99
  -4  11   4   21.33    5.97
   4  11  -4   22.67    5.26
   4 -11   4   18.47    4.31
   4  11  -4   18.49    6.48
  -4 -11  -4   19.27    5.20
   4 -11   4   20.54    5.20
  -4 -11   4   24.82    5.32
  -4 -11   4   19.37    4.33
   4 -11  -4   23.57    5.19
   4 -11  -4   19.09    3.66
  -4  11  -4   17.79    6.56
   4  11   4   19.23    5.71
   4  11   4   23.42    5.81
  -4 -11   4   15.11    3.73
   4 -11  -4   24.80    4.86
  -4 -11  -5    9.14    5.05
   4 -11   5    8.05    4.66
  -4 -11  -5   10.51    5.13
  -4 -11  -5   12.86    3.92
   4  11  -5    8.58    4.95
   4 -11   5    7.79    4.01
   4  11  -5   16.10    6.17
   4 -11   5    4.54    4.69
  -4  11   5   10.18    5.82
   4  11   5    4.59    5.33
   4  11   5    8.03    5.62
   4 -11  -5   11.97    3.61
  -4 -11   5    2.50    3.35
   4 -11  -5    6.80    4.72
  -4  11  -5    8.77    5.84
  -4 -11   5    4.27    4.78
  -4 -11   5    4.13    3.75
   4 -11  -5    9.20    4.52
   4 -11   6    0.97    5.55
  -4 -11  -6   17.81    5.97
   4 -11   6    9.14    5.44
  -4  11   6    6.22    6.22
   4  11  -6    5.20    5.16
   4  11  -6   10.53    6.53
  -4 -11  -6   17.12    5.89
  -4 -11  -6   10.62    4.00
   4 -11   6   -0.86    4.01
  -4 -11   6    5.00    4.42
   4  11   6    2.72    5.67
  -4  11  -6   16.17    6.72
   4 -11  -6    1.64    4.99
  -4 -11   6    2.19    5.34
   4 -11  -6    5.97    3.70
  -4 -11   6    2.25    3.63
   4  11   6    8.84    6.41
   4 -11  -6    2.61    4.98
   4 -11   7   -2.30    5.20
   4  11  -7    6.00    5.95
   4 -11   7   -8.67    4.13
   4 -11   7   -5.29    5.95
  -4 -11  -7   18.96    6.27
   4  11  -7    5.49    6.88
  -4 -11  -7   18.88    6.34
  -4  11   7    4.76    6.85
  -4 -11  -7    8.79    4.05
   4 -11  -7    5.47    5.13
  -4 -11   7   -4.83    4.68
  -4  11  -7   14.67    6.81
   4  11   7   -6.27    6.61
   4  11   7    1.46    6.10
   4 -11  -7    7.98    3.93
  -4 -11   7    1.88    5.65
  -4 -11   7    2.25    3.85
   4 -11  -7    7.07    5.39
  -5  11   0   16.07    6.69
   5  11   0   10.02    5.76
  -5  11   0    9.28    3.35
   5  11   0    9.09    2.79
   5 -11   0   11.68    3.59
   5  11   0   12.46    4.10
   5 -11   1   33.56    4.55
   5  11  -1   30.53    4.63
  -5 -11  -1   32.12    4.60
  -5  11   1   28.66    6.29
   5  11  -1   33.25    6.18
  -5 -11  -1   36.10    3.92
   5  11  -1   36.00    4.15
   5  11   1   34.87    6.59
   5 -11  -1   33.89    3.65
   5 -11  -1   32.98    4.37
   5  11   1   30.89    5.02
  -5  11  -1   35.50    7.64
  -5  11  -1   36.11    4.28
  -5 -11  -2   38.67    4.28
  -5  11   2   35.51    6.91
  -5 -11  -2   40.18    5.27
   5 -11   2   40.65    4.35
   5  11  -2   38.97    4.55
  -5 -11  -2   37.52    4.65
   5  11  -2   36.41    6.49
   5  11  -2   35.63    5.06
   5  11   2   37.90    6.25
  -5  11  -2   32.91    7.27
  -5 -11   2   37.97    4.07
   5 -11  -2   34.19    4.68
  -5 -11   2   35.41    4.28
   5  11   2   36.42    5.83
   5 -11  -2   34.68    3.79
  -5 -11  -3   15.99    5.34
  -5 -11  -3   22.74    4.19
   5  11  -3   20.19    6.36
   5 -11   3    7.51    5.06
   5  11  -3   23.34    5.07
   5 -11   3   19.64    4.33
  -5 -11  -3   20.35    4.72
  -5  11   3   14.50    5.88
   5  11   3   19.70    5.69
   5 -11  -3   14.94    4.52
  -5  11  -3   15.71    6.36
  -5 -11   3   18.56    4.08
   5 -11  -3   14.76    3.29
   5  11   3   18.00    5.62
   5 -11  -3   22.72    4.37
  -5 -11   3   18.83    3.68
   5  11  -4   33.47    5.61
  -5 -11  -4   36.38    4.54
  -5 -11  -4   33.40    5.89
  -5 -11  -4   31.51    5.31
   5  11  -4   33.57    7.19
   5 -11   4   26.76    5.53
  -5  11   4   25.70    6.13
   5 -11   4   27.16    4.49
  -5 -11   4   27.52    4.14
   5 -11  -4   33.36    5.18
  -5 -11   4   27.23    4.40
   5 -11  -4   33.66    4.96
   5  11   4   27.72    5.95
  -5  11  -4   27.44    6.80
   5  11   4   32.15    6.24
   5 -11  -4   29.90    3.70
   5  11  -5   26.98    6.94
   5 -11   5   14.25    4.19
  -5 -11  -5   26.23    4.43
   5  11  -5   19.53    5.33
  -5 -11  -5   25.19    5.67
  -5 -11  -5   30.51    5.80
  -5  11   5   14.04    6.09
   5 -11   5    9.28    5.02
  -5 -11   5   20.26    4.03
  -5 -11   5   17.19    5.27
   5  11   5   18.08    5.75
   5 -11  -5   19.09    5.15
   5  11   5   14.63    6.00
   5 -11  -5   20.90    3.69
   5 -11  -5   19.83    5.17
  -5 -11   5   19.17    4.25
  -5  11  -5   20.86    6.24
   5 -11   6    5.23    5.28
  -5 -11  -6   25.81    6.18
  -5 -11  -6   17.42    4.27
   5  11  -6   16.27    6.94
   5 -11   6    1.56    5.45
  -5 -11  -6   21.44    5.97
  -5  11   6    7.06    6.50
   5 -11   6    8.03    4.31
   5  11  -6   15.69    5.89
  -5 -11   6    8.83    3.89
   5 -11  -6   10.93    5.35
   5  11   6    2.95    5.83
   5 -11  -6    6.93    5.46
  -5 -11   6   12.48    5.77
  -5 -11   6   12.09    4.78
   5  11   6   10.08    6.60
  -5  11  -6   14.94    6.80
   5 -11  -6   13.24    3.96
   5 -11   7   -6.61    6.03
  -5 -11  -7   15.15    6.28
   5 -11   7   -3.95    4.17
   5  11  -7   12.82    6.89
   5  11  -7    5.25    5.83
  -5  11   7    0.49    6.64
  -5 -11  -7   13.85    4.41
   5 -11   7   -6.02    4.97
  -5 -11  -7   19.30    6.21
  -5 -11   7    1.36    3.78
   5 -11  -7   11.74    5.50
  -5 -11   7   -0.20    4.70
   5  11   7    4.87    6.28
  -5  11  -7   10.46    6.55
   5 -11  -7    6.56    3.79
   5  11   7   -0.63    6.88
  -5 -11   7   11.99    6.15
   5 -11  -7    5.26    5.64
   6 -11   0   25.75    4.29
  -6  11   0   28.78    7.37
   6  11   0   28.66    4.72
   6  11   0   31.53    3.84
  -6  11   0   28.63    4.02
  -6  11   1   22.49    6.36
  -6 -11  -1   25.01    4.56
   6  11  -1   21.09    4.55
   6 -11   1   29.56    4.16
   6  11  -1   26.43    3.72
   6  11  -1   26.91    5.60
   6  11   1   25.27    5.04
  -6  11  -1   30.29    3.94
   6 -11  -1   32.34    4.52
  -6  11  -1   26.14    7.52
  -6  11   2   16.05    6.65
  -6 -11  -2   19.05    4.34
   6  11  -2   17.29    4.70
  -6 -11  -2   23.62    5.02
   6  11  -2   22.35    5.90
  -6 -11  -2   22.41    4.12
   6 -11   2   18.02    3.98
   6  11  -2   19.64    3.93
   6 -11  -2   20.08    3.44
  -6  11  -2   12.09    6.86
  -6 -11   2   20.02    3.95
   6 -11  -2   17.17    4.33
  -6  11  -2   23.48    4.05
   6  11   2   17.85    5.65
   6 -11   3   14.12    4.17
   6 -11   3   17.53    5.11
  -6 -11  -3   10.35    4.45
  -6  11   3   16.17    6.16
   6  11  -3   19.70    6.23
  -6 -11  -3    9.04    5.09
  -6 -11  -3   12.04    4.13
   6  11  -3   15.14    5.01
  -6 -11   3   10.47    3.37
  -6 -11   3   13.76    4.00
   6  11   3   18.67    5.99
   6 -11  -3   17.39    4.71
  -6  11  -3   11.91    6.47
   6 -11  -3   15.89    3.32
  -6 -11  -4   25.91    5.79
   6 -11   4   18.54    5.31
   6 -11   4   20.31    4.30
  -6  11   4   14.30    5.89
  -6 -11  -4   33.62    5.34
   6  11  -4   23.54    5.32
  -6 -11  -4   23.56    4.15
   6  11  -4   30.92    6.81
   6 -11  -4   25.73    3.63
  -6  11  -4   28.21    6.68
   6  11   4   25.03    5.92
   6 -11  -4   26.20    5.03
   6  11   4   17.13    5.48
  -6 -11   4   21.78    4.10
  -6 -11   4   25.64    3.94
   6 -11  -4   31.63    4.99
   6 -11   5   14.87    5.17
   6  11  -5   27.66    7.09
   6 -11   5   12.13    4.13
  -6 -11  -5   22.45    4.23
  -6 -11  -5   34.19    6.28
   6 -11   5   15.58    5.35
  -6 -11  -5   27.37    6.17
   6  11  -5   21.61    5.39
  -6  11   5   15.56    6.00
  -6  11  -5   27.60    6.72
   6  11   5   15.55    5.56
   6 -11  -5   27.57    5.55
   6  11   5   24.38    6.53
  -6 -11   5   15.86    3.79
  -6 -11   5   25.72    5.91
  -6 -11   5   21.08    4.34
   6 -11  -5   31.45    5.45
   6 -11  -5   19.09    3.86
   6 -11   6   -6.23    5.32
   6 -11   6   -2.15    5.06
  -6 -11  -6   14.64    5.92
   6  11  -6    5.15    5.32
  -6  11   6    2.10    6.25
  -6 -11  -6   14.51    6.03
  -6 -11  -6   11.56    4.11
   6  11  -6    5.74    6.58
   6 -11   6   -1.09    4.12
   6  11   6   -0.05    5.62
   6 -11  -6    6.06    5.26
  -6 -11   6    1.86    4.30
   6 -11  -6    5.06    5.07
   6 -11  -6    5.29    3.63
  -6 -11   6    2.52    5.56
  -6  11  -6   15.25    6.47
   6  11   6   -2.65    6.27
  -6 -11   6   -1.22    3.35
   6 -11   7  -12.50    6.19
  -6 -11  -7   13.78    6.22
   6  11  -7    8.24    6.89
   6 -11   7   -8.73    5.10
   6  11  -7    3.26    5.65
   6 -11   7    0.53    4.43
  -6 -11  -7   11.46    6.19
  -6  11   7   -6.11    6.14
  -6 -11  -7    5.16    4.00
  -6 -11   7    1.91    5.88
   6  11   7   -2.97    5.95
   6 -11  -7    4.77    5.26
  -6  11  -7    9.82    6.49
  -6 -11   7   -9.16    4.72
   6 -11  -7    3.03    5.11
   6 -11  -7   -1.51    3.47
  -6 -11   7   -3.24    3.72
   6  11   7   -1.15    6.93
  -7  11   0   49.16    8.61
   7  11   0   50.11    6.00
  -7  11   0   54.27    5.24
   7  11   0   48.40    4.39
   7 -11   0   55.79    5.45
   7 -11   1   32.98    4.59
  -7  11   1   27.27    4.33
   7 -11   1   29.57    3.69
  -7 -11  -1   28.73    4.44
   7  11  -1   25.79    5.00
  -7 -11  -1   30.94    5.04
   7  11  -1   25.21    3.82
  -7  11   1   28.01    6.81
  -7  11  -1   34.09    4.38
  -7  11  -1   29.69    8.07
   7 -11  -1   34.03    4.90
   7  11   1   29.30    3.17
   7  11   1   30.06    5.44
   7  11  -2   43.53    6.90
   7 -11   2   43.07    4.53
   7  11  -2   44.39    5.11
  -7 -11  -2   40.72    5.83
   7  11  -2   35.30    5.50
  -7 -11  -2   41.14    5.18
  -7  11   2   36.88    7.67
  -7 -11  -2   37.68    4.65
  -7 -11   2   45.83    5.14
   7  11   2   42.01    6.49
   7 -11  -2   38.53    4.06
   7 -11  -2   47.31    5.69
  -7  11  -2   41.78    5.24
  -7  11  -2   33.65    7.89
   7  11  -3   26.83    6.38
   7  11  -3   21.72    4.42
   7 -11   3   23.32    4.35
   7 -11   3   18.10    5.15
  -7 -11  -3   27.49    5.92
  -7  11   3   19.68    6.41
   7  11  -3   23.04    5.25
  -7 -11  -3   26.50    5.15
  -7 -11  -3   20.61    4.40
  -7 -11   3   16.71    4.07
  -7  11  -3   20.03    6.77
   7  11   3   25.95    6.36
   7 -11  -3   27.51    5.02
   7 -11  -3   21.66    3.75
  -7 -11  -4   26.85    5.78
   7  11  -4   18.85    4.97
   7 -11   4   11.97    5.13
  -7  11   4   21.21    6.41
   7 -11   4   19.27    4.23
  -7 -11  -4   20.68    4.26
   7  11  -4   21.24    6.24
  -7 -11  -4   24.59    5.56
   7  11   4   16.10    5.89
  -7 -11   4   13.96    3.28
  -7  11  -4   18.61    6.39
  -7 -11   4    9.76    3.80
   7 -11  -4   16.28    4.74
   7 -11  -4   23.31    3.86
   7 -11   5   15.10    4.38
  -7 -11  -5   17.60    4.29
  -7 -11  -5   26.13    6.16
  -7 -11  -5   24.83    6.04
   7 -11   5   10.57    5.57
   7  11  -5   20.24    6.80
   7  11  -5   24.62    5.60
  -7  11   5   12.91    6.14
  -7  11  -5   26.02    6.69
   7 -11  -5   15.68    3.72
   7  11   5    9.23    5.36
   7  11   5   20.81    6.68
  -7 -11   5   18.78    5.42
  -7 -11   5   19.06    3.94
   7 -11  -5   17.56    5.04
   7 -11  -5   23.29    5.32
  -7 -11   5   16.87    4.50
   7 -11   6   -1.65    5.26
  -7  11   6    0.61    6.12
  -7 -11  -6   13.78    4.28
   7  11  -6   -0.93    5.14
   7  11  -6   14.48    6.90
  -7 -11  -6   12.73    6.28
  -7 -11  -6   17.41    6.25
   7 -11   6   -1.02    4.18
   7 -11  -6    3.66    5.08
   7 -11  -6    5.04    3.69
  -7 -11   6    5.94    4.49
  -7 -11   6    4.32    3.66
  -7 -11   6    3.58    5.37
   7  11   6   -0.34    6.49
   7 -11  -6   13.04    5.20
   7  11   6    1.79    6.80
  -7  11  -6   13.99    6.60
   7 -11   7  -10.61    5.24
   7 -11   7   -2.22    4.51
  -7 -11  -7    9.33    4.33
  -7  11   7   -1.86    6.61
   7  11  -7    1.87    5.53
   7  11  -7    5.09    6.92
  -7 -11  -7   11.60    6.52
  -7 -11  -7   17.90    6.85
  -7  11  -7   12.15    6.71
   7 -11  -7    8.38    3.89
   7 -11  -7   -4.21    4.48
  -7 -11   7   -6.77    3.47
  -7 -11   7    3.57    5.88
  -7 -11   7   -5.68    4.88
   7  11   7   -2.20    6.98
   7 -11  -7    5.81    5.56
   8 -11   0   21.83    4.84
   8  11   0   20.29    4.94
  -8  11   0   19.26    4.31
  -8  11   0   22.69    8.22
   8  11   0   25.88    3.73
  -8  11   1   16.92    4.10
  -8 -11  -1   17.13    5.00
  -8 -11  -1   14.67    4.11
   8 -11   1   17.14    4.48
   8  11  -1   20.05    3.87
   8 -11   1   19.30    3.54
   8  11  -1   11.74    4.81
  -8  11   1   15.83    6.77
   8  11   1   11.66    5.15
   8  11   1   16.91    3.04
   8 -11  -1   16.75    4.64
   8  11   1   21.89    3.48
  -8  11  -1   19.79    4.20
  -8  11  -1   12.97    7.88
  -8 -11  -2   24.94    4.48
  -8 -11  -2   19.70    5.47
  -8  11   2   22.89    7.24
   8  11  -2   26.58    5.29
  -8 -11  -2   26.64    4.98
   8 -11   2   24.07    4.10
   8  11  -2   20.80    4.30
  -8  11  -2   24.03    4.39
   8  11   2   19.30    6.08
  -8  11  -2   23.65    7.93
   8  11   2   25.46    3.08
   8  11   2   26.48    3.54
   8 -11  -2   26.59    5.08
   8 -11   3   16.19    4.18
  -8 -11  -3   18.12    4.21
   8  11  -3   17.23    4.88
   8  11  -3   24.76    5.92
  -8  11   3   11.05    5.98
  -8 -11  -3   17.87    5.52
  -8 -11  -3   16.72    4.94
   8  11  -3   21.25    4.47
   8 -11   3   13.82    4.78
  -8  11  -3   16.65    6.51
   8  11   3   13.61    5.80
   8 -11  -3   14.00    4.67
   8 -11  -3   15.36    3.49
  -8 -11   3   15.39    3.93
  -8  11  -3   15.83    4.08
   8  11  -4   19.39    5.97
  -8 -11  -4   14.70    5.47
   8  11  -4   11.32    4.66
  -8 -11  -4   20.84    5.61
   8 -11   4    3.74    4.80
  -8  11   4   13.43    6.19
   8 -11   4   13.44    4.31
  -8 -11  -4   14.97    4.11
   8 -11  -4    8.18    4.61
  -8 -11   4    9.16    3.20
   8 -11  -4   13.80    3.50
  -8 -11   4   10.08    3.90
   8  11   4   13.14    5.84
  -8  11  -4   17.38    6.57
   8 -11   5    3.53    5.65
   8  11  -5    6.14    4.81
   8 -11   5   -0.05    3.86
  -8 -11  -5   11.26    4.23
  -8  11   5    6.26    6.12
  -8 -11  -5    6.16    5.74
   8  11  -5   16.81    6.64
  -8 -11  -5   12.33    5.95
  -8 -11   5    9.64    5.23
  -8 -11   5    7.06    4.10
  -8 -11   5   11.68    3.71
   8 -11  -5   11.30    3.64
   8  11   5    8.88    6.37
  -8  11  -5   20.50    6.53
   8 -11  -5   16.32    5.10
  -8 -11  -6   10.24    4.26
  -8 -11  -6   17.37    6.43
   8  11  -6   10.36    6.44
   8 -11   6   -0.32    3.99
   8  11  -6   12.79    5.79
  -8 -11  -6   15.55    6.39
   8 -11   6   -0.78    5.45
  -8  11   6   -1.44    5.98
  -8  11  -6   13.62    6.45
  -8 -11   6   -2.35    4.19
   8 -11  -6    0.94    3.59
  -8 -11   6    8.77    5.45
  -8 -11   6   -0.60    3.30
   8 -11  -6    2.25    5.07
   8  11   6   -3.20    6.28
  -9  11   0   31.31    8.52
   9  11   0   33.82    4.16
   9  11   0   28.25    3.67
   9 -11   0   34.46    5.22
  -9  11   0   32.44    4.65
   9  11   0   24.39    5.29
  -9 -11  -1   24.00    4.81
  -9 -11  -1   23.92    4.44
  -9  11   1   24.86    7.28
   9  11  -1   23.03    5.29
  -9  11   1   22.51    4.49
   9 -11   1   24.51    3.62
   9  11  -1   22.10    4.04
  -9 -11  -1   24.12    5.47
   9  11   1   17.46    3.17
  -9  11  -1   15.25    7.89
  -9  11  -1   27.09    4.69
   9  11   1   19.46    5.49
   9  11   1   22.64    3.75
   9 -11  -1   25.79    5.01
  -9 -11  -2   17.18    5.44
  -9 -11  -2   17.61    4.34
   9  11  -2   13.32    4.77
   9 -11   2   10.08    3.65
  -9  11   2   17.11    4.25
  -9  11   2   10.60    6.97
  -9 -11  -2   19.80    4.89
   9  11  -2    8.32    3.94
  -9  11  -2   14.90    7.35
  -9  11  -2   12.50    4.34
   9  11   2   15.99    5.71
   9  11   2   13.63    3.31
   9 -11  -2   16.76    4.76
   9  11   2   14.01    2.89
  -9 -11  -3   29.20    4.56
   9  11  -3   26.93    5.29
  -9 -11  -3   34.07    6.06
   9  11  -3   42.13    6.53
   9 -11   3   27.94    4.93
  -9 -11  -3   33.39    5.69
  -9  11   3   26.80    6.81
   9 -11   3   24.44    4.32
   9  11  -3   26.51    4.78
  -9  11  -3   33.79    7.36
  -9  11  -3   21.54    4.56
   9  11   3   24.90    6.21
  -9 -11   3   23.54    4.31
   9 -11  -3   32.62    5.40
   9  11   3   23.89    2.97
   9  11  -4   19.54    6.18
   9 -11   4   13.45    4.32
   9  11  -4   16.93    5.08
  -9 -11  -4   20.42    6.04
  -9  11   4   12.48    6.49
  -9 -11  -4   15.41    4.19
   9 -11   4   14.78    5.25
  -9 -11  -4   20.71    5.80
  -9 -11   4    8.84    3.31
  -9  11  -4   20.00    6.70
   9 -11  -4   15.30    5.09
   9 -11  -4   17.72    3.96
   9  11   4   14.19    6.20
  -9 -11   4   12.64    3.91
   9  11  -5   11.76    6.41
   9  11  -5   12.77    5.44
  -9 -11  -5    7.19    4.34
   9 -11   5    7.04    4.53
  -9 -11  -5   13.41    6.08
   9 -11   5   -2.04    4.91
  -9  11   5   -1.76    6.12
  -9 -11  -5   14.39    6.34
   9 -11  -5    4.72    3.67
  -9 -11   5    3.02    3.32
   9  11   5    5.15    6.31
  -9 -11   5    1.31    3.90
   9 -11  -5    5.63    5.02
  -9  11  -5   16.55    6.51
   9 -11   6    1.48    4.54
  -9 -11  -6   22.34    6.76
   9  11  -6   10.72    6.49
   9 -11   6    1.48    5.48
  -9 -11  -6   22.22    6.58
   9  11  -6    5.15    5.59
  -9 -11  -6   12.50    4.45
  -9  11   6   -1.24    5.95
  -9 -11   6    5.27    5.58
  -9  11  -6   12.05    6.56
  -9 -11   6    4.94    3.83
   9 -11  -6    1.50    5.02
   9  11   6   -1.61    6.36
  -9 -11   6    0.36    4.40
   9 -11  -6    8.06    3.82
 -10  11   0   17.93    8.20
  10  11   0   15.26    4.75
  10 -11   0   17.28    4.95
  10  11   0   18.67    3.80
 -10  11   0   10.78    4.21
  10  11   0   13.88    3.38
 -10  11   1   22.81    4.52
  10  11  -1   23.47    4.08
 -10  11   1   14.91    7.27
  10 -11   1   23.13    3.52
 -10 -11  -1   35.24    5.66
  10  11  -1   23.18    5.14
 -10 -11  -1   30.64    4.65
 -10  11  -1   32.62    4.91
  10  11   1   20.44    3.31
  10  11   1   29.68    3.86
  10 -11  -1   27.14    5.20
  10  11   1   24.10    5.56
 -10  11  -1   25.82    8.04
  10  11  -2   14.35    4.27
  10  11  -2   15.97    4.90
 -10  11   2   17.80    4.35
 -10 -11  -2   30.58    5.88
 -10 -11  -2   25.62    4.67
  10 -11   2   14.95    3.68
 -10 -11  -2   21.41    5.01
 -10  11   2   11.98    7.12
  10  11   2   21.18    3.52
  10  11   2   15.18    3.09
  10 -11  -2   18.69    4.95
 -10  11  -2   21.37    4.67
  10  11   2   19.75    5.62
 -10  11  -2   26.46    7.50
 -10 -11  -3   20.82    5.90
  10 -11   3   12.31    4.72
  10  11  -3   10.55    4.50
 -10 -11  -3   22.07    5.60
  10  11  -3   18.51    4.49
  10 -11   3   11.28    3.95
 -10  11   3   11.26    4.40
 -10 -11  -3   12.02    4.35
 -10  11   3    4.80    6.24
 -10  11  -3   20.13    6.87
  10  11   3   11.36    6.05
  10  11   3   16.65    2.98
  10  11   3   13.07    3.27
 -10  11  -3    1.96    4.14
 -10 -11   3   11.31    3.84
  10 -11  -3   14.60    4.88
  10  11  -4    7.96    4.81
 -10  11   4    2.59    6.30
 -10 -11  -4   18.41    6.07
 -10 -11  -4    9.06    4.31
 -10 -11  -4   12.88    6.01
  10  11  -4    8.90    6.30
  10  11  -4    2.36    4.42
  10 -11   4   -1.12    4.59
  10 -11   4    2.60    4.15
 -10 -11   4    1.47    3.76
  10  11   4   10.14    6.26
 -10  11  -4   17.06    6.57
  10 -11  -4    8.37    5.03
 -10  11  -4    3.61    4.34
  10 -11   5   -0.32    4.39
  10  11  -5    6.92    5.30
  10 -11   5    3.97    5.41
 -10 -11  -5   11.55    6.19
  10  11  -5    9.92    6.50
 -10 -11  -5   10.71    4.57
 -10 -11  -5   13.89    6.43
 -10  11   5   -0.45    6.45
 -10 -11   5    3.62    4.05
  10 -11  -5    4.97    5.12
  10  11   5    4.71    3.32
 -10  11  -5   19.35    6.55
 -10 -11   5    2.68    3.25
  10  11   5    4.38    6.40
 -10 -11  -6   10.39    4.59
  10  11  -6    6.59    5.50
  10 -11   6    0.30    5.74
  10 -11   6   -1.55    4.59
 -10 -11  -6    9.07    6.61
 -10 -11  -6   13.51    6.43
  10  11  -6   12.61    7.05
 -10  11  -6   11.24    6.53
  10 -11  -6    2.34    3.93
 -10 -11   6    3.05    5.45
 -10 -11   6   -4.34    4.64
  10 -11  -6    4.24    5.28
  10  11   6    1.29    6.70
 -10 -11   6    5.55    3.73
 -11  11   0    3.36    7.64
  11  11   0   14.63    3.73
  11 -11   0    6.07    4.59
  11  11   0    9.58    4.50
 -11  11   0   11.44    4.41
  11  11   0   12.01    3.27
 -11  11   1   10.34    4.22
  11  11  -1   15.03    4.81
 -11 -11  -1   16.75    5.33
 -11 -11  -1    8.80    4.56
 -11  11   1    1.26    7.28
  11  11  -1   12.72    3.99
  11 -11   1   11.26    3.21
 -11 -11  -1    6.11    4.08
  11 -11  -1    6.61    4.56
  11  11   1   11.06    3.07
  11  11   1    7.36    4.82
  11  11   1   12.80    3.52
 -11  11  -1   10.99    4.52
 -11  11  -1    6.94    7.20
 -11  11   2   10.78    4.35
  11  11  -2   12.08    4.55
 -11 -11  -2   24.71    5.92
  11 -11   2    7.05    3.62
 -11  11   2    5.38    6.80
 -11 -11  -2   17.90    4.32
 -11 -11  -2   14.95    5.08
  11  11  -2   12.84    4.12
  11  11   2   13.17    5.35
  11  11   2   14.74    3.15
  11  11   2   15.41    3.53
 -11  11  -2   16.73    4.61
 -11  11  -2   16.40    7.35
  11 -11  -2   13.94    4.89
 -11 -11  -3   15.99    5.84
 -11 -11  -3   16.56    4.70
 -11  11   3    8.06    6.92
  11 -11   3    8.33    4.64
 -11 -11  -3   22.99    6.33
  11  11  -3   16.08    4.81
  11 -11   3   12.71    3.93
 -11  11   3   16.67    4.65
  11  11  -3   16.22    5.01
  11  11   3   19.17    6.42
  11  11   3   13.06    3.04
 -11  11  -3   11.09    4.69
  11  11   3   17.10    3.60
 -11  11  -3   25.64    6.95
  11 -11  -3   14.94    5.08
 -11  11   4   -4.19    6.25
 -11  11   4    3.99    4.56
  11  11  -4   -1.25    4.61
  11  11  -4   12.18    5.05
  11 -11   4    0.14    3.93
 -11 -11  -4   20.26    6.45
 -11 -11  -4    9.35    4.45
  11 -11   4    6.62    5.10
 -11 -11  -4    1.38    5.93
  11 -11  -4    9.65    5.14
  11  11   4    7.96    2.96
 -11  11  -4    4.61    4.56
 -11  11  -4    7.67    5.97
  11  11   4    8.67    3.46
  11  11   4    6.34    6.32
 -11 -11   4    5.38    3.78
  11 -11   5   11.34    4.60
 -11 -11  -5    7.55    4.52
  11 -11   5   -1.18    4.90
 -11  11   5   15.13    5.63
 -11  11   5    0.04    6.54
  11  11  -5   10.51    5.45
 -11 -11  -5    9.74    6.64
 -11 -11  -5    8.15    6.09
  11  11   5    7.44    3.47
 -11 -11   5    7.61    4.62
  11 -11  -5    1.07    5.44
  11  11   5    7.96    6.54
 -11 -11   5    2.11    2.94
 -11  11  -5   20.59    6.28
 -12  11   0   13.93    4.62
 -12 -11   0   12.64    4.69
  12  11   0   12.76    3.40
 -12  11   0    8.85    7.89
  12  11   0   13.24    4.61
  12  11   0   15.96    3.98
 -12 -11  -1    8.83    4.57
  12  11  -1    9.89    3.99
 -12 -11  -1   12.73    5.35
  12  11  -1   13.43    4.89
 -12  11   1    2.59    7.37
  12 -11   1   11.47    3.26
 -12  11   1    8.45    4.40
 -12 -11  -1   19.95    4.99
  12  11   1   13.79    3.83
 -12  11  -1   11.93    4.69
  12  11   1   12.01    5.20
 -12  11  -1   14.17    7.44
  12 -11  -1    5.49    4.91
  12  11   1   19.67    3.49
  12 -11   2    3.07    3.31
 -12 -11  -2    9.72    4.51
 -12  11   2    6.69    4.25
 -12  11   2   -3.83    6.77
 -12 -11  -2    8.47    5.14
 -12 -11  -2   11.67    5.74
  12  11  -2    7.07    4.56
  12  11  -2    4.08    4.17
  12 -11  -2   -1.96    4.74
  12  11   2    2.80    2.94
 -12  11  -2    1.26    4.36
  12  11   2    7.72    5.30
  12  11   2    7.82    3.39
 -12  11  -2    9.24    6.84
  12 -11   3    5.32    3.96
 -12 -11  -3   10.21    4.76
 -12  11   3    9.77    4.65
  12 -11   3   -0.30    4.46
 -12 -11  -3    7.51    5.89
  12  11  -3   13.91    4.87
 -12  11   3    0.00    7.21
 -12 -11  -3   16.99    6.23
  12  11  -3    4.48    4.72
 -12  11  -3   18.69    6.60
  12  11   3   12.05    3.49
  12 -11  -3    7.08    5.23
 -12  11  -3    4.82    4.68
  12  11   3    6.60    2.93
  12  11   3    4.24    5.92
 -12  11   4   -3.52    6.49
  12 -11   4    5.12    5.05
 -12  11   4    5.81    4.83
 -12 -11  -4   13.67    6.43
 -12 -11  -4   12.17    4.71
  12  11  -4   11.36    5.27
  12 -11   4    5.65    4.14
 -12 -11  -4   12.01    6.69
  12  11  -4   10.17    5.19
  12  11   4    7.69    3.46
 -12  11  -4   18.90    6.27
 -12 -11   4    6.19    4.02
  12  11   4   11.24    6.57
  12  11   4    8.37    3.00
 -12  11  -4    4.70    4.70
  12 -11  -4    4.16    5.17
  12  11  -5   10.75    5.50
  12 -11   5    4.74    4.39
 -12 -11  -5   14.47    6.56
 -12 -11  -5   10.91    4.67
 -12 -11  -5   12.80    6.95
  12 -11   5    6.49    5.54
 -12  11   5   -0.57    4.83
 -12  11   5    1.98    7.00
  12  11   5   12.45    7.03
 -12 -11   5    3.73    4.47
  12  11   5   10.57    3.82
  12 -11  -5    5.00    5.31
 -12  11  -5    5.05    7.46
 -12 -11   5    8.17    3.45
  13  11   0    8.96    3.89
 -13 -11   0    5.84    5.27
  13  11   0    5.16    3.41
 -13  11   0    4.52    4.71
 -13 -11   0    1.88    4.54
 -13  11   0    0.43    7.70
 -13 -11   0    1.45    4.43
  13  11   0   13.51    4.72
 -13 -11  -1    5.87    4.84
 -13  11   1   -1.42    4.37
  13  11  -1    3.87    3.39
  13  11  -1   13.44    4.88
  13  11  -1    6.51    4.07
 -13  11   1   -5.24    7.45
 -13 -11  -1    7.34    5.54
 -13 -11  -1   -1.79    4.51
  13 -11   1   11.17    3.21
 -13  11  -1   -2.46    4.46
 -13  11  -1    7.72    7.16
  13  11   1    7.46    5.08
  13 -11  -1    2.90    4.95
  13  11   1    4.15    3.17
  13  11   1    2.05    3.60
  13  11  -2    6.71    4.71
 -13 -11  -2   11.77    4.83
 -13  11   2    8.76    4.53
 -13  11   2  -10.22    6.98
  13 -11   2    4.90    3.55
  13  11  -2    8.61    4.26
 -13 -11  -2    2.41    5.18
 -13 -11  -2    8.77    5.91
  13  11   2   11.19    3.63
 -13  11  -2    2.71    4.68
 -13  11  -2   14.22    6.79
  13 -11  -2   -1.42    4.96
  13  11   2   10.94    5.73
  13  11   2    5.40    3.13
 -13 -11  -3    4.07    4.74
 -13 -11  -3    5.80    6.27
 -13 -11  -3    5.93    6.28
  13  11  -3    2.52    4.72
  13 -11   3    0.91    4.30
  13  11  -3   10.70    4.81
 -13  11   3   -8.22    6.83
  13 -11   3    4.39    3.77
 -13  11   3    0.22    4.35
  13  11   3    3.84    6.07
 -13  11  -3   17.57    6.24
 -13  11  -3    0.42    4.75
  13 -11  -3    4.55    5.35
  13  11   3    7.10    2.95
  13  11   3    9.84    3.60
 -13 -11  -4    5.07    4.69
  13  11  -4   11.16    5.42
 -13 -11  -4   14.00    6.56
  13  11  -4    2.70    5.14
  13 -11   4    3.35    5.21
 -13  11   4    0.53    4.63
 -13  11   4   -1.40    6.89
  13 -11   4    6.97    4.16
 -13 -11  -4    9.06    6.88
  13  11   4    9.67    3.61
 -13 -11   4    0.57    3.98
  13  11   4    7.39    6.57
  13  11   4    9.83    3.18
 -13  11  -4   23.96    6.29
  13 -11  -4    3.57    5.43
 -13  11  -4    7.75    5.11
 -14 -11   0    3.93    5.22
  14  11   0    7.46    3.50
 -14  11   0   -4.43    7.54
  14 -11   0    8.46    3.47
 -14 -11   0    5.35    5.08
  14  11   0    5.23    3.93
  14  11   0   12.91    4.86
 -14  11   0    1.00    4.67
 -14 -11   0    3.37    5.45
 -14 -11  -1   13.59    5.21
  14  11  -1    8.96    4.37
  14 -11   1    6.08    3.26
 -14 -11  -1   -0.90    4.93
  14  11  -1    7.89    3.74
 -14  11   1    1.15    4.75
  14  11  -1   10.24    4.90
 -14 -11  -1    7.47    5.85
  14  11   1    3.45    5.01
 -14  11  -1   -3.51    4.68
  14  11   1    1.57    3.09
  14  11   1    8.72    3.99
 -14  11  -1   12.20    7.21
 -14  11   2    1.95    4.75
 -14 -11  -2    5.28    5.49
  14  11  -2    5.96    5.01
 -14 -11  -2    9.84    6.05
  14 -11   2    7.21    3.50
  14 -11   2    4.18    3.82
  14  11  -2    6.38    4.38
 -14 -11  -2   10.91    4.98
  14  11   2    3.15    3.08
 -14  11  -2   13.65    6.49
 -14  11  -2    1.68    4.90
  14  11   2    1.45    5.48
  14 -11  -2   -2.22    5.14
  14  11   2    4.80    3.65
  14 -11   3   -3.85    4.26
  14  11  -3   12.10    5.27
  14 -11   3    1.74    3.60
 -14 -11  -3    9.07    6.28
 -14 -11  -3    3.20    6.21
 -14  11   3    1.14    4.68
  14  11  -3    7.70    5.02
 -14 -11  -3    3.96    4.85
 -14  11   3   -8.54    7.23
  14  11   3   12.29    3.69
 -14  11  -3   -5.35    4.53
  14 -11  -3   -0.27    5.48
  14  11   3    2.68    2.93
  14  11   3    2.33    5.98
  14 -11   4    5.02    4.31
 -14  11   4   -5.83    7.27
  14 -11   4   -0.73    4.92
 -14 -11  -4    9.23    5.31
 -14 -11  -4   13.60    7.35
  14  11  -4    5.32    5.51
  14  11  -4    6.43    5.39
 -14  11   4   -2.79    5.09
 -14 -11  -4   12.70    6.66
  14  11   4   10.59    6.74
  14 -11  -4   -0.23    5.83
 -14  11  -4   25.21    6.40
  14  11   4   10.05    3.81
  14  11   4    6.52    3.25
 -14 -11   4    8.66    4.28
 -14  11  -4   -1.45    4.97
  15  11   0    3.96    4.10
 -15  11   0    0.28    4.85
  15  11   0    3.53    3.54
 -15  11   0    2.88    7.37
 -15 -11   0    1.26    5.05
  15  11  -1   12.35    5.00
 -15  11   1   -3.90    4.87
 -15 -11  -1    4.95    6.15
  15 -11   1   12.56    3.37
  15  11  -1    2.20    3.80
 -15 -11  -1    4.53    4.98
 -15 -11  -1    3.46    5.55
  15  11  -1   10.59    4.43
  15  11   1    8.97    5.32
 -15  11  -1   -0.54    4.64
 -15  11  -1   17.11    7.23
  15  11   1    3.32    3.87
  15  11   1    4.51    3.31
 -15 -11  -2    5.32    6.56
 -15  11   2   -0.07    4.91
 -15 -11  -2    5.27    4.99
  15  11  -2    6.53    4.43
 -15 -11  -2    3.69    5.70
  15  11  -2   14.90    5.61
  15 -11   2   -0.63    3.34
  15  11   2    2.06    3.31
 -15  11  -2   -4.19    4.94
 -15  11  -2   26.27    6.65
  15 -11  -2   -6.70    5.27
  15  11   2    9.80    6.09
  15  11   2   11.68    4.14
 -15  11   3    6.70    5.18
  15 -11   3    1.98    4.49
 -15 -11  -3    0.53    4.97
 -15 -11  -3    8.53    6.40
  15 -11   3    2.75    3.74
 -15 -11  -3    5.31    6.80
  15  11  -3   15.15    5.59
  15  11  -3    3.40    4.96
  15  11   3    5.37    3.17
  15  11   3   10.10    3.87
 -15  11  -3   -5.78    4.73
 -15  11  -3   25.66    7.06
  15 -11  -3    5.07    5.72
  15  11   3    9.37    6.58
  16  11   0    1.48    3.66
  16  11   0    7.41    4.50
 -16  11   0   -9.47    8.45
 -16 -11   0   -0.44    4.90
 -16  11   0   -2.49    4.96
  16  11  -1    8.14    4.38
 -16 -11  -1    9.75    5.76
 -16  11   1   -2.42    5.07
  16  11  -1    1.85    3.84
 -16 -11  -1    6.42    5.57
  16 -11   1    5.58    3.30
 -16 -11  -1    5.86    6.09
  16  11  -1   19.10    5.37
  16  11   1    9.69    5.28
  16  11   1    0.33    3.42
  16  11   1   14.34    4.36
 -16  11  -1    0.30    5.00
 -16  11   2   -3.45    5.12
  16 -11   2    6.82    3.71
 -16 -11  -2   10.12    6.56
 -16 -11  -2    6.82    6.40
 -16 -11  -2   12.26    5.68
  16  11  -2   13.22    5.58
  16  11  -2    3.91    4.63
  16  11   2    4.80    3.41
  16  11   2   10.79    4.18
 -16  11  -2   -3.38    5.07
  16  11   2   14.94    6.38
   0  12   0   77.06    9.41
   0  12   1   74.60    8.31
   0 -12  -1   71.32    5.45
   0  12  -1   73.21    8.99
   0 -12  -1   70.96    4.34
   0 -12  -1   71.96    4.97
   0  12   2   28.53    6.94
   0  12  -2   21.81    6.73
   0 -12  -2   28.22    4.76
   0 -12   2   28.35    4.08
   0 -12  -2   27.63    3.91
   0 -12  -2   24.32    4.08
   0  12  -3   26.26    4.82
   0 -12   3   27.88    4.93
   0 -12   3   29.11    4.87
   0 -12  -3   22.40    4.11
   0  12  -3   19.71    6.63
   0 -12   3   29.06    4.52
   0 -12  -3   27.02    5.08
   0 -12  -3   23.30    4.34
   0  12   3   27.91    6.59
   0  12  -4   19.38    4.96
   0 -12  -4   18.22    4.75
   0 -12  -4   13.40    3.76
   0 -12   4   17.11    4.25
   0 -12  -4   16.95    5.13
   0  12   4   13.17    6.12
   0 -12   4   23.94    5.14
   0  12  -4   10.11    6.28
   0 -12   4   19.56    4.95
   0 -12  -5   14.64    5.24
   0 -12   5    5.22    3.92
   0 -12   5    9.00    5.10
   0  12   5    9.63    5.13
   0  12   5    6.98    5.63
   0 -12   5    8.35    4.57
   0  12  -5   13.51    5.23
   0 -12  -5   11.75    3.73
   0 -12  -5   18.13    5.10
   0  12  -5   14.94    6.39
   0  12  -6   13.80    7.00
   0 -12   6    7.17    5.42
   0  12   6    0.28    5.63
   0 -12   6    4.38    3.97
   0 -12  -6   12.95    5.65
   0 -12   6    1.12    4.40
   0  12   6    7.85    6.70
   0 -12  -6    8.17    3.94
   0 -12  -6    8.49    5.49
   0  12   7   -6.80    5.98
   0  12  -7   13.79    6.98
   0 -12  -7   10.35    4.00
   0  12   7    3.06    6.89
   0 -12  -7   17.48    5.98
   0 -12  -7   10.13    5.77
   0 -12   7   -6.60    4.13
   0 -12   7   -2.04    5.82
   0 -12   7   -2.09    4.80
  -1  12   0   59.70    9.36
   1  12   0   65.22    9.03
  -1  12   1   28.08    6.35
  -1 -12  -1   35.23    4.49
  -1 -12  -1   35.48    4.94
   1  12  -1   31.35    7.17
  -1 -12  -1   37.97    3.96
   1 -12  -1   38.03    3.94
  -1 -12   1   39.60    4.02
  -1  12  -1   36.39    7.44
   1 -12  -1   37.79    4.94
   1  12   1   29.98    6.74
   1 -12  -1   36.84    4.51
  -1 -12  -2   23.17    4.19
   1  12  -2   24.41    6.73
   1 -12   2   32.65    4.29
  -1  12   2   35.27    7.26
  -1 -12  -2   21.62    4.70
  -1 -12  -2   26.10    3.91
   1 -12  -2   36.45    4.65
   1  12   2   34.24    7.04
  -1 -12   2   41.18    4.58
  -1  12  -2   22.89    6.83
  -1 -12   2   33.89    4.67
   1 -12  -2   30.20    3.98
   1 -12  -2   30.50    4.75
   1 -12   3   21.34    5.11
   1 -12   3   19.58    4.37
  -1 -12  -3   13.96    4.39
   1  12  -3   16.73    6.56
  -1 -12  -3   17.21    3.91
  -1  12   3   21.33    6.27
  -1 -12  -3   20.04    5.32
   1  12  -3   21.06    4.84
   1  12   3   21.88    6.43
   1 -12  -3   18.11    4.38
  -1 -12   3   20.30    4.72
  -1  12  -3   17.25    6.58
   1 -12  -3   17.61    3.85
  -1 -12   3   16.39    4.85
  -1 -12   3   23.34    4.31
   1 -12  -3   25.06    5.04
   1  12  -4   15.02    6.47
  -1 -12  -4   12.30    4.88
  -1  12   4   12.99    6.08
   1 -12   4   11.45    4.08
  -1 -12  -4   15.83    3.84
   1  12  -4   17.84    5.06
   1 -12   4   19.31    5.06
   1 -12   4   16.17    4.78
  -1 -12  -4   18.55    4.92
  -1  12  -4   17.13    4.96
  -1 -12   4   16.85    4.07
  -1 -12   4   16.22    4.98
   1 -12  -4   11.14    4.97
  -1  12  -4   17.82    6.48
   1 -12  -4   24.95    4.91
   1  12   4   16.39    5.07
   1 -12  -4   13.21    3.73
  -1 -12   4   16.72    4.73
   1  12   4   12.34    5.89
  -1 -12  -5   13.07    5.06
   1 -12   5    8.43    3.99
  -1  12   5    8.87    5.69
   1  12  -5   17.94    5.28
   1  12  -5   14.52    6.28
  -1 -12  -5   15.55    3.94
  -1 -12  -5   15.06    5.21
   1 -12   5   12.67    4.99
  -1  12   5    9.85    4.97
   1 -12   5   15.60    4.80
   1  12   5    6.76    5.63
   1  12   5    9.92    5.30
   1 -12  -5   16.28    5.16
  -1 -12   5   11.45    4.73
   1 -12  -5   11.88    3.75
  -1 -12   5   12.46    5.18
   1 -12  -5   17.29    5.29
  -1 -12   5    1.30    3.71
  -1  12  -5   10.95    6.27
  -1  12   6   -3.26    5.27
  -1  12   6    1.44    6.31
   1 -12   6   -0.39    4.08
  -1 -12  -6    8.81    3.85
   1  12  -6    6.10    6.32
  -1 -12  -6    6.56    5.37
  -1 -12  -6   10.33    5.45
   1 -12   6    4.69    4.87
   1 -12   6    5.32    5.44
  -1 -12   6    7.11    5.55
  -1 -12   6    7.82    4.03
  -1 -12   6    3.76    4.60
   1 -12  -6    5.76    3.84
   1  12   6   -5.01    5.62
   1  12   6    0.43    6.08
  -1  12  -6   10.00    6.59
   1 -12  -6    3.42    5.49
   1 -12  -6   12.17    5.80
  -1 -12  -7   17.27    6.05
  -1 -12  -7   16.77    5.80
  -1  12   7   -4.68    6.70
   1 -12   7   -2.09    5.17
  -1 -12  -7   11.30    4.04
  -1  12   7   -5.78    6.02
   1 -12   7    0.92    5.91
   1 -12   7   -4.46    4.36
   1  12  -7   11.68    7.14
  -1 -12   7   -7.35    4.13
   1 -12  -7    6.71    5.97
   1  12   7   -8.45    5.97
  -1  12  -7   10.18    6.62
   1 -12  -7    8.46    5.98
   1 -12  -7    6.14    3.88
  -1 -12   7   -1.59    5.86
  -1 -12   7   -2.27    4.78
   1  12   7   -7.60    6.08
  -2  12   0   45.65    8.08
   2  12   0   60.82    8.74
   2 -12   0   50.74    4.71
  -2  12   1   49.46    7.87
  -2 -12  -1   48.32    5.15
   2  12  -1   33.28    6.93
   2  12  -1   47.21    5.19
   2  12   1   43.89    5.64
   2 -12  -1   40.26    4.57
   2  12   1   38.43    7.15
  -2  12  -1   48.69    8.87
   2 -12  -1   44.76    5.04
   2 -12  -1   46.66    3.96
  -2 -12   1   50.99    4.09
  -2 -12  -2   41.93    5.09
  -2 -12  -2   46.12    4.52
  -2  12   2   46.99    8.31
   2 -12   2   46.32    4.93
   2  12  -2   37.74    6.95
   2  12  -2   45.43    5.49
  -2 -12  -2   42.89    5.73
   2 -12  -2   46.32    5.06
   2 -12  -2   44.65    4.20
   2 -12  -2   44.00    5.54
   2  12   2   40.86    6.08
   2  12   2   39.39    7.27
  -2 -12   2   47.33    4.60
  -2 -12   2   49.34    5.21
  -2  12  -2   34.87    7.35
   2  12  -3   25.26    7.02
  -2  12   3   26.44    6.52
   2 -12   3   26.00    5.25
  -2 -12  -3   25.15    4.44
   2  12  -3   33.21    5.20
  -2 -12  -3   28.13    4.78
  -2 -12  -3   23.55    5.46
   2 -12   3   20.80    4.58
  -2  12  -3   21.18    6.72
  -2 -12   3   25.62    4.73
   2  12   3   27.73    5.38
   2 -12  -3   26.90    5.11
   2 -12  -3   26.97    4.82
  -2 -12   3   28.54    4.46
   2 -12  -3   27.52    4.04
   2  12   3   28.17    6.54
  -2 -12  -4   15.51    4.75
  -2 -12  -4   15.41    5.15
  -2  12   4   11.23    5.83
  -2 -12  -4   12.22    3.90
   2  12  -4   22.67    5.08
   2 -12   4   18.28    5.10
   2 -12   4   13.22    4.39
   2  12  -4   16.34    6.23
   2 -12  -4   15.96    3.64
   2 -12  -4   17.93    4.55
  -2 -12   4   12.12    3.95
   2 -12  -4   18.35    5.13
  -2 -12   4   22.16    5.24
   2  12   4   16.05    5.34
  -2  12  -4   15.21    6.30
   2  12   4   14.40    6.00
  -2 -12   4   16.00    4.78
   2  12  -5   13.73    5.18
  -2 -12  -5   15.96    5.38
  -2  12   5   14.96    6.26
   2 -12   5    7.19    4.17
   2  12  -5   16.07    6.44
   2 -12   5   11.68    5.01
  -2 -12  -5   15.89    5.14
   2 -12   5    7.98    4.88
  -2 -12  -5   13.06    3.83
   2  12   5   15.92    5.67
  -2  12  -5   12.42    6.01
   2  12   5    5.97    5.68
   2 -12  -5   11.84    5.07
   2 -12  -5   14.45    5.15
  -2 -12   5    6.60    3.64
   2 -12  -5   16.49    4.07
  -2 -12   5    8.12    5.01
  -2 -12   5    7.69    4.33
   2  12  -6   17.66    7.19
  -2  12   6    7.96    6.74
  -2  12   6    1.80    5.40
  -2 -12  -6    8.69    3.79
   2 -12   6   -0.95    4.08
  -2 -12  -6   16.22    5.69
  -2 -12  -6   21.61    5.93
   2  12  -6   13.14    5.90
   2 -12   6    2.34    4.95
   2 -12   6    9.10    5.77
   2 -12  -6   12.15    5.74
  -2  12  -6   17.23    6.83
  -2 -12   6    2.71    3.87
   2  12   6    2.40    5.89
  -2 -12   6   12.82    5.67
   2  12   6    7.09    6.40
   2 -12  -6   13.61    5.79
  -2 -12   6    4.23    4.58
   2 -12  -6   12.77    4.21
   2 -12   7    2.11    5.50
  -2 -12  -7   24.78    6.32
  -2  12   7   -0.40    6.86
   2 -12   7    0.44    6.12
   2 -12   7    0.62    4.73
   2  12  -7    9.88    7.10
  -2 -12  -7   17.17    6.09
  -2 -12  -7   18.64    4.51
   2  12   7    1.07    6.74
   2  12   7   -1.47    6.86
   2 -12  -7   11.76    6.04
  -2  12  -7    9.51    6.78
  -2 -12   7   -2.09    4.02
   2 -12  -7    4.89    5.98
  -2 -12   7   -5.53    4.82
  -2 -12   7    0.73    5.88
   2 -12  -7   11.82    4.02
  -3  12   0   19.28    7.33
   3  12   0   25.09    7.05
   3  12   0   20.37    3.88
   3 -12   0   21.33    3.78
  -3 -12  -1   14.24    4.13
  -3  12   1   16.98    6.01
   3  12  -1   19.85    6.66
   3  12  -1   16.96    4.12
  -3  12  -1   18.71    7.23
   3 -12  -1   18.95    3.25
   3  12   1   22.70    4.59
   3  12   1   19.15    6.68
   3 -12  -1   27.90    4.02
  -3 -12   1   24.55    3.59
   3 -12  -1   21.72    4.11
  -3 -12  -2   27.39    5.12
  -3  12   2   33.62    7.16
   3 -12   2   35.35    4.61
   3  12  -2   31.00    4.77
  -3 -12  -2   30.26    4.50
  -3 -12  -2   35.73    4.31
   3  12  -2   32.19    6.87
   3 -12  -2   32.56    4.58
  -3 -12   2   35.33    4.26
  -3 -12   2   31.91    4.61
   3 -12  -2   35.85    4.86
   3  12   2   30.04    5.33
   3 -12  -2   34.26    3.95
  -3  12  -2   24.84    6.99
   3  12   2   37.02    6.94
   3  12  -3   15.13    4.81
   3  12  -3   11.34    6.36
   3 -12   3   10.77    4.45
  -3 -12  -3   11.12    4.03
  -3 -12  -3    7.57    4.42
   3 -12   3    7.30    5.09
  -3  12   3   15.05    6.23
  -3 -12  -3   12.87    5.19
  -3 -12   3    9.52    4.32
   3  12   3   12.84    5.34
  -3  12  -3   13.09    6.20
   3 -12  -3    9.52    4.43
   3 -12  -3   14.80    3.58
   3 -12  -3   15.86    4.87
   3  12   3   11.46    6.00
  -3 -12   3   16.43    3.99
   3 -12   4    2.54    4.18
   3  12  -4    9.75    4.63
  -3 -12  -4   10.19    5.21
  -3 -12  -4   17.31    4.98
  -3 -12  -4    8.39    3.71
  -3  12   4    6.54    5.64
   3  12  -4   13.77    6.18
   3 -12   4    1.33    4.87
  -3 -12   4    6.02    3.63
   3  12   4    5.05    5.51
  -3 -12   4    7.99    4.14
   3  12   4   10.10    5.19
   3 -12  -4   13.26    4.85
  -3 -12   4   10.88    4.66
   3 -12  -4   10.74    3.39
   3 -12  -4    9.00    4.57
  -3  12  -4   13.28    5.98
  -3 -12  -5   14.86    5.41
  -3  12   5    9.36    5.98
   3  12  -5   13.19    5.22
   3 -12   5    1.90    4.86
  -3 -12  -5   12.85    4.14
   3 -12   5    6.30    4.23
   3  12  -5   15.61    6.44
   3 -12   5    6.18    5.38
  -3 -12  -5   21.48    5.84
  -3 -12   5    9.91    4.52
   3 -12  -5   14.46    4.94
  -3 -12   5   11.02    5.40
   3 -12  -5   11.13    5.09
   3  12   5    8.60    5.75
   3 -12  -5    6.70    3.53
  -3 -12   5    6.37    3.83
  -3  12  -5   10.52    5.81
   3  12   5    2.60    5.46
  -3 -12  -6   15.71    5.84
  -3 -12  -6   10.24    4.29
   3 -12   6    1.41    5.39
   3 -12   6    4.33    5.63
   3 -12   6    3.58    4.41
   3  12  -6   18.50    7.25
  -3 -12  -6   13.33    5.91
  -3  12   6    1.01    6.48
   3  12  -6    6.69    5.51
   3  12   6    3.08    6.14
   3 -12  -6    4.02    5.45
  -3  12  -6   15.64    6.72
   3 -12  -6    8.81    5.43
   3  12   6    4.31    6.18
  -3 -12   6    6.37    4.49
  -3 -12   6    6.63    5.69
  -3 -12   6    3.78    3.85
   3 -12  -6    4.79    3.75
   3 -12   7   -8.05    5.19
  -3 -12  -7   26.57    6.42
   3 -12   7   -3.23    4.39
   3 -12   7   -2.36    6.07
   3  12  -7    8.37    7.01
  -3 -12  -7   14.78    4.21
  -3 -12  -7   16.69    6.29
  -3  12   7   -4.37    6.88
  -3 -12   7   -2.69    3.93
   3 -12  -7    5.54    5.87
   3  12   7   -3.79    6.32
   3  12   7    1.92    6.85
   3 -12  -7   11.61    4.13
  -3  12  -7   13.80    6.98
   3 -12  -7    6.73    5.61
  -3 -12   7    4.12    6.11
  -3 -12   7   -3.52    5.06
   4  12   0    9.59    6.49
   4 -12   0   12.03    3.73
  -4  12   0   12.22    7.01
   4  12   0   13.37    3.95
   4 -12   0   10.60    3.20
  -4 -12  -1   13.25    4.33
   4  12  -1   14.05    4.12
   4  12  -1   12.61    6.45
  -4  12   1   15.47    6.13
   4 -12   1   18.12    3.75
   4  12  -1   11.84    3.36
   4  12   1   13.36    4.67
   4 -12  -1   18.75    4.14
  -4 -12   1   20.08    3.86
   4  12   1   13.25    6.76
  -4 -12   1   14.64    3.45
   4 -12  -1   15.24    3.31
  -4  12  -1   17.67    7.41
  -4  12   2   20.82    6.95
   4 -12   2   21.75    4.21
   4  12  -2   24.56    4.65
  -4 -12  -2   25.00    5.05
  -4 -12  -2   24.25    4.22
   4  12  -2   22.44    6.46
  -4 -12  -2   23.17    4.34
  -4  12  -2   12.40    6.63
   4 -12  -2   24.44    4.66
   4 -12  -2   27.28    3.80
   4 -12  -2   25.14    4.56
  -4 -12   2   28.42    4.02
   4  12   2   25.32    6.53
   4  12   2   23.63    5.53
  -4 -12   2   31.93    4.55
  -4 -12  -3   23.34    4.39
  -4  12   3   22.70    6.50
  -4 -12  -3   24.75    5.48
  -4 -12  -3   21.25    4.77
   4  12  -3   20.29    6.66
   4 -12   3   25.92    5.52
   4  12  -3   24.02    5.15
   4 -12   3   27.31    4.74
   4 -12  -3   29.08    4.91
   4  12   3   21.68    5.88
  -4 -12   3   16.80    3.98
   4 -12  -3   22.34    3.77
   4  12   3   22.12    6.37
  -4 -12   3   22.16    4.62
  -4  12  -3   16.74    6.24
   4 -12  -3   18.18    4.80
   4  12  -4   11.80    5.99
  -4 -12  -4   16.33    3.99
   4 -12   4    9.02    4.24
   4 -12   4    2.08    5.04
   4  12  -4   13.00    4.93
  -4  12   4    8.57    5.68
  -4 -12  -4   10.85    5.10
  -4 -12  -4   12.13    4.63
   4 -12  -4   14.96    3.59
  -4 -12   4   12.37    4.15
  -4  12  -4   11.45    5.92
   4 -12  -4   14.33    4.87
   4 -12  -4   18.39    4.66
  -4 -12   4    8.57    3.71
  -4 -12   4    8.17    4.56
   4  12   4    7.66    5.62
   4  12   4   15.90    5.50
   4 -12   5    5.87    4.16
   4 -12   5    2.83    5.37
  -4 -12  -5   10.73    4.10
   4  12  -5    6.63    5.32
  -4  12   5    6.69    5.94
  -4 -12  -5   17.31    5.52
   4  12  -5   13.98    6.38
  -4 -12  -5   16.22    5.52
   4 -12  -5   11.94    3.58
   4  12   5    8.50    5.68
   4  12   5    6.98    5.78
  -4 -12   5   12.21    3.93
  -4 -12   5   10.88    5.21
   4 -12  -5   11.98    5.04
  -4 -12   5    8.77    4.44
  -4  12  -5   13.11    6.23
   4 -12  -5    9.69    4.97
   4 -12   6   10.40    6.00
   4  12  -6   14.84    6.98
  -4 -12  -6   21.60    6.08
   4 -12   6   -1.16    5.39
  -4 -12  -6   15.52    4.46
   4  12  -6   11.12    5.81
   4 -12   6    6.03    4.58
  -4  12   6    0.69    6.16
  -4 -12  -6   17.80    6.12
   4 -12  -6    7.62    5.65
   4 -12  -6    3.87    3.81
   4 -12  -6    6.53    5.53
   4  12   6    0.81    6.03
  -4  12  -6   17.06    6.62
   4  12   6    5.12    6.33
  -4 -12   6    3.52    3.79
  -4 -12   6    3.96    4.70
  -4 -12   6   13.57    5.85
  -4 -12  -7   25.05    6.75
   4 -12   7   -7.77    4.22
   4  12  -7    7.85    6.21
  -4 -12  -7   13.26    4.45
   4 -12   7   -7.57    5.96
   4  12  -7    7.53    7.25
  -4 -12  -7   17.45    6.56
  -4  12   7    0.84    7.25
   4 -12   7   -0.44    5.60
  -4  12  -7    8.48    6.55
   4 -12  -7    2.12    3.82
   4 -12  -7    2.42    5.47
   4  12   7    0.71    6.69
  -4 -12   7   -2.79    3.69
  -4 -12   7   -1.94    4.96
   4 -12  -7    6.24    5.73
   4  12   7    0.14    6.76
  -4 -12   7    4.43    6.13
  -5  12   0   13.93    7.40
   5  12   0   12.21    4.16
   5 -12   0    8.94    3.92
  -5  12   0   10.89    3.69
   5  12   0    4.56    6.19
   5  12  -1   14.48    3.55
   5  12  -1   10.87    4.25
   5  12  -1    8.87    5.98
  -5 -12  -1    8.07    4.19
  -5  12   1    8.30    6.05
   5 -12   1   15.15    3.96
   5 -12  -1   12.37    4.12
  -5  12  -1   10.44    3.54
  -5  12  -1    7.24    7.15
  -5 -12   1   16.37    4.09
   5  12   1    9.99    4.79
   5 -12  -1    9.41    3.29
   5  12   1   10.10    6.68
  -5 -12  -2    8.71    4.66
  -5 -12  -2    6.00    3.92
   5 -12   2    5.46    4.03
   5  12  -2    4.48    4.41
  -5 -12  -2    2.65    3.94
  -5  12   2    9.77    6.60
   5  12  -2    7.57    5.93
  -5 -12   2    5.83    3.47
   5  12   2    1.06    5.20
   5  12   2    7.49    6.18
  -5  12  -2    6.92    6.72
  -5 -12   2    5.26    3.85
   5 -12  -2    8.14    3.38
   5 -12  -2    7.58    4.39
   5  12  -3    3.91    4.56
  -5  12   3    7.09    5.81
   5 -12   3    4.98    4.12
  -5 -12  -3   12.17    4.39
  -5 -12  -3   10.49    5.13
   5 -12   3   -0.54    5.02
  -5 -12  -3    8.97    4.08
   5  12  -3   11.38    6.11
  -5 -12   3    3.53    3.84
  -5 -12   3    9.45    3.63
   5 -12  -3    8.88    4.45
   5 -12  -3    3.42    4.13
   5  12   3    3.09    5.48
   5 -12  -3    7.73    3.35
   5  12   3    6.62    5.85
  -5  12  -3    3.14    5.81
   5  12  -4    9.57    4.81
   5  12  -4   14.98    6.07
  -5  12   4    6.73    5.68
   5 -12   4    8.63    4.15
   5 -12   4    7.25    5.23
  -5 -12  -4   12.21    5.01
  -5 -12  -4   18.62    3.89
  -5 -12  -4   13.62    4.78
   5  12   4    4.55    5.42
   5 -12  -4   14.54    4.57
  -5 -12   4    9.31    4.12
  -5 -12   4   10.00    3.55
   5  12   4    6.40    5.42
  -5  12  -4   10.92    5.88
   5 -12  -4   10.90    3.15
   5 -12  -4   14.35    4.69
   5 -12   5    3.97    5.66
   5 -12   5    6.08    4.25
   5  12  -5   11.38    5.45
  -5  12   5    5.40    6.09
  -5 -12  -5    7.76    5.40
  -5 -12  -5   26.72    5.99
   5  12  -5   14.01    6.24
  -5 -12  -5   11.73    4.12
  -5  12  -5   14.26    6.35
   5  12   5   -1.89    5.24
   5 -12  -5    6.66    5.10
   5 -12  -5   11.17    3.54
  -5 -12   5    6.43    4.20
   5  12   5    9.16    6.03
   5 -12  -5   10.83    5.12
  -5 -12   5    7.31    3.65
  -5 -12   5   10.99    5.22
   5 -12   6   -3.97    5.53
   5  12  -6    7.74    5.57
   5 -12   6    7.37    5.67
   5 -12   6    3.78    4.42
   5  12  -6    7.84    6.72
  -5 -12  -6   18.42    6.36
  -5 -12  -6   13.45    4.38
  -5  12   6    0.39    6.29
  -5 -12  -6   12.99    5.88
   5 -12  -6    8.22    5.52
  -5 -12   6   17.17    6.26
  -5 -12   6    0.95    4.56
  -5  12  -6    8.32    6.26
   5  12   6    1.31    5.77
   5 -12  -6   12.33    4.03
   5  12   6    3.39    6.39
   5 -12  -6   12.08    5.73
  -5 -12   6    3.77    3.74
   5  12  -7   -2.53    5.78
   5 -12   7    0.69    4.80
  -5  12   7   -1.74    7.01
  -5 -12  -7   21.95    6.98
   5 -12   7   -9.22    7.30
  -5 -12  -7   13.46    4.48
   5  12  -7    4.82    6.68
  -5 -12  -7   18.30    6.58
   5 -12   7   -1.11    5.93
   5  12   7    4.64    6.78
   5  12   7    0.52    6.86
  -5  12  -7   16.09    6.88
   5 -12  -7   10.29    4.12
  -5 -12   7   -0.19    3.86
   5 -12  -7    5.70    5.92
  -5 -12   7   -4.19    4.79
  -5 -12   7    8.30    6.30
   5 -12  -7   12.61    6.16
   6  12   0    7.08    3.13
   6  12   0   10.47    6.07
   6  12   0    8.41    4.39
  -6  12   0    7.49    3.73
  -6  12   0   12.02    7.47
   6 -12   0    8.90    4.11
   6 -12   1    6.03    4.02
  -6 -12  -1    4.44    3.70
  -6 -12  -1    6.33    4.41
  -6  12   1    3.95    6.04
   6  12  -1    7.94    5.70
   6  12  -1    4.63    4.38
   6  12  -1    5.83    3.44
   6 -12  -1    4.72    3.44
   6  12   1    5.42    6.39
  -6  12  -1    5.45    3.55
   6  12   1    1.10    4.85
   6 -12  -1    2.91    4.01
  -6  12  -1    6.69    7.44
   6  12  -2   10.37    4.76
  -6 -12  -2    9.87    4.40
   6  12  -2   13.24    5.92
  -6 -12  -2   11.68    5.09
  -6 -12  -2   11.06    4.13
  -6  12   2   14.15    7.13
   6 -12   2    9.29    4.11
   6  12  -2   13.16    3.98
  -6 -12   2   14.73    4.08
  -6  12  -2   11.47    7.00
   6 -12  -2    7.00    4.44
   6 -12  -2    9.50    3.47
   6  12   2    8.40    5.50
  -6 -12  -3    8.99    4.52
  -6  12   3    2.18    5.60
  -6 -12  -3    4.00    4.87
  -6 -12  -3    2.29    3.83
   6  12  -3    8.96    5.74
   6 -12   3   -0.20    4.72
   6 -12   3    1.13    3.92
   6  12  -3    7.45    4.65
  -6  12  -3    9.67    5.98
  -6 -12   3    6.26    3.27
   6 -12  -3    8.52    4.52
   6 -12  -3    3.15    3.11
   6  12   3    7.49    5.67
  -6 -12   3    4.71    3.89
   6  12   3    0.95    5.73
  -6 -12  -4    9.86    5.16
   6  12  -4    8.42    5.81
   6 -12   4   -1.55    4.98
  -6 -12  -4    7.60    4.79
  -6 -12  -4    8.22    3.85
   6  12  -4    6.14    4.68
   6 -12   4    5.84    4.02
  -6  12   4    3.09    5.59
   6 -12  -4   11.29    4.58
   6 -12  -4    7.42    4.45
   6  12   4   10.05    5.59
   6  12   4   -0.05    5.21
  -6 -12   4    0.58    3.36
  -6  12  -4   13.26    6.28
  -6 -12   4    8.43    4.01
   6 -12  -4   10.18    3.28
  -6 -12  -5   13.35    5.67
  -6  12   5    1.92    5.98
   6 -12   5   -5.51    3.84
   6  12  -5   12.53    6.43
  -6 -12  -5   12.99    5.70
   6  12  -5    8.71    5.24
  -6 -12  -5    9.55    4.07
   6 -12   5    1.57    5.73
   6 -12  -5    5.05    4.96
  -6 -12   5    4.68    4.12
   6  12   5   -1.94    5.32
   6  12   5    1.76    5.94
  -6  12  -5   14.48    6.26
  -6 -12   5    9.16    3.67
  -6 -12   5    5.78    4.99
   6 -12  -5    4.32    3.47
   6 -12  -5    8.83    4.96
  -6 -12  -6   16.06    6.12
   6 -12   6    0.63    4.27
   6  12  -6    0.64    5.33
  -6 -12  -6   16.86    6.23
   6  12  -6   10.75    6.64
   6 -12   6   -8.86    5.31
  -6 -12  -6   11.46    4.29
  -6  12   6   -5.93    5.80
  -6 -12   6   -1.29    3.48
  -6 -12   6   -2.70    4.35
   6  12   6   -2.16    5.72
   6 -12  -6    3.21    3.67
  -6 -12   6    3.64    5.78
   6  12   6    2.10    6.43
   6 -12  -6    3.81    5.55
  -6  12  -6   12.04    6.32
   6 -12  -6   10.58    5.43
   7 -12   0    2.98    4.05
  -7  12   0    8.55    7.60
   7  12   0    9.60    4.54
  -7  12   0    0.67    3.85
   7  12   0    1.52    3.20
   7 -12   1   -2.69    3.94
   7  12  -1    2.20    3.55
  -7  12   1    1.73    4.03
  -7  12   1    4.34    6.39
  -7 -12  -1   -0.77    4.42
   7  12  -1    2.73    4.41
  -7  12  -1    1.38    3.67
   7 -12  -1    0.56    4.34
  -7  12  -1    3.36    7.45
   7  12   1    3.62    5.05
   7 -12   2    3.86    3.78
   7  12  -2    4.28    3.86
  -7 -12  -2   10.08    4.97
   7  12  -2   10.75    5.70
   7  12  -2    9.03    4.70
  -7 -12  -2    9.04    4.10
  -7 -12  -2   10.34    4.43
  -7  12   2    3.00    6.71
  -7 -12   2    8.89    4.05
  -7  12  -2    7.88    4.03
   7 -12  -2   13.76    3.64
  -7  12  -2   10.15    6.94
   7  12   2    9.17    5.47
   7 -12  -2    8.44    4.68
   7 -12   3   12.47    4.08
  -7 -12  -3   16.09    4.71
  -7 -12  -3    9.97    5.05
  -7  12   3    7.07    5.93
   7  12  -3   10.69    4.86
   7  12  -3   17.76    5.70
   7 -12   3    4.63    4.94
  -7 -12  -3   17.80    4.22
  -7 -12   3    6.45    3.69
   7 -12  -3   10.31    3.43
  -7  12  -3   16.99    6.33
  -7 -12   3    4.05    3.05
   7 -12  -3    9.64    4.57
   7  12   3   13.16    5.90
   7  12  -4   12.62    5.69
  -7 -12  -4   12.58    5.43
   7  12  -4    9.40    4.74
   7 -12   4   -7.26    4.95
   7 -12   4    7.85    4.15
  -7 -12  -4    8.72    3.87
  -7  12   4    0.17    5.81
  -7 -12  -4   16.74    5.42
   7  12   4    3.92    5.64
  -7 -12   4    5.90    3.40
   7 -12  -4    3.85    3.27
   7  12   4   -2.62    5.23
   7 -12  -4    5.87    4.74
  -7  12  -4   10.68    6.21
  -7 -12   4    2.62    3.66
  -7 -12  -5    9.20    5.84
   7 -12   5    5.23    4.25
  -7 -12  -5    9.51    4.25
   7  12  -5    8.27    5.33
   7  12  -5   12.84    6.41
   7 -12   5   -5.01    5.47
  -7 -12  -5   11.35    5.98
  -7  12   5    2.80    6.16
   7 -12  -5   12.40    5.30
   7 -12  -5    9.81    3.76
   7  12   5   -3.18    6.11
   7  12   5    7.07    6.33
  -7 -12   5    6.39    3.53
  -7 -12   5    6.46    4.32
  -7  12  -5   11.99    6.27
   7 -12  -5    6.36    5.03
  -7 -12   5    6.94    5.22
   7  12  -6   10.10    6.68
  -7 -12  -6   20.64    6.36
  -7  12   6    4.36    6.37
  -7 -12  -6   12.00    4.54
   7  12  -6    5.43    5.69
   7 -12   6   -4.81    5.34
   7 -12   6    2.53    4.24
  -7 -12  -6   19.86    6.44
   7 -12  -6    9.25    3.82
  -7 -12   6    8.68    4.76
  -7  12  -6   18.26    6.77
   7 -12  -6   13.50    5.54
  -7 -12   6    2.33    3.71
  -7 -12   6   -1.26    5.46
   7  12   6    7.04    6.56
   7 -12  -6   16.22    5.56
  -8  12   0   -2.23    7.48
   8  12   0    0.30    4.30
   8  12   0   -1.05    3.31
  -8  12   0   -0.87    3.84
   8 -12   0    0.39    4.34
  -8  12   1   -1.53    3.83
  -8 -12  -1    1.46    4.56
   8 -12   1    1.10    4.18
   8  12  -1    0.58    3.49
  -8  12   1   -3.44    6.34
   8  12  -1    2.88    4.40
  -8 -12  -1    3.56    3.91
   8  12   1    0.31    2.70
   8  12   1    2.56    5.03
  -8  12  -1    3.32    7.32
  -8  12  -1    1.60    3.88
   8  12   1   -0.23    3.04
   8 -12  -1    5.49    4.40
  -8  12   2   -1.15    6.46
   8  12  -2    8.69    4.98
   8  12  -2    8.60    4.63
   8 -12   2    1.29    3.55
   8  12  -2    1.10    3.68
  -8 -12  -2    9.56    4.26
  -8 -12  -2    4.55    4.71
  -8 -12  -2    5.68    3.95
   8  12   2    6.66    5.29
   8 -12  -2    5.21    4.44
  -8  12  -2    2.92    3.85
  -8  12  -2    6.41    6.91
  -8 -12  -3    6.47    5.20
   8  12  -3    3.08    3.93
   8  12  -3    1.99    4.20
  -8 -12  -3   10.11    4.85
  -8 -12  -3    6.56    3.95
   8 -12   3    6.91    3.90
   8  12  -3   11.50    5.33
  -8  12   3   -4.03    5.64
   8 -12   3    1.98    4.53
   8 -12  -3    2.11    4.43
   8 -12  -3   -2.09    3.06
  -8  12  -3   11.55    6.25
  -8 -12   3    9.88    3.93
   8  12   3    3.10    5.62
   8 -12   4   -2.89    4.13
   8  12  -4   11.92    5.89
  -8 -12  -4    6.01    5.41
   8  12  -4    8.05    4.68
  -8  12   4   -2.01    5.88
  -8 -12  -4   14.05    5.48
   8 -12   4   -2.94    5.15
  -8 -12  -4    3.74    3.83
  -8  12  -4   13.50    6.61
  -8 -12   4    1.76    3.03
   8 -12  -4    3.09    3.22
   8 -12  -4    3.53    4.52
  -8 -12   4    6.24    3.91
   8  12   4    2.96    6.07
   8  12  -5    4.08    5.09
  -8 -12  -5   12.36    5.85
  -8 -12  -5    4.99    4.25
  -8  12   5    1.26    6.31
   8 -12   5    2.53    4.06
   8  12  -5    6.84    6.33
  -8 -12  -5   13.42    6.17
   8 -12   5   -8.07    5.39
   8 -12  -5    8.05    5.21
   8 -12  -5   -1.27    3.46
   8  12   5    4.48    6.42
  -8 -12   5    2.32    3.55
  -8 -12   5    4.21    5.02
  -8  12  -5   12.05    6.12
  -8 -12   5    0.57    4.03
   8 -12   6    1.71    4.19
  -8 -12  -6   19.93    6.79
   8  12  -6   15.49    6.75
  -8 -12  -6   14.70    6.23
   8  12  -6    9.96    5.64
  -8  12   6   -2.36    6.33
   8 -12   6   -2.99    5.93
  -8 -12  -6   14.15    4.49
   8 -12  -6   -0.24    3.63
   8  12   6    2.30    6.77
   8 -12  -6    8.66    5.78
  -8  12  -6   13.70    6.64
  -8 -12   6    9.38    5.92
  -8 -12   6    0.38    4.34
  -8 -12   6    4.32    3.58
   9  12   0   13.11    4.69
  -9  12   0   -0.49    7.62
   9  12   0    8.95    3.44
   9 -12   0    3.25    4.34
  -9  12   0    1.72    3.83
  -9  12   1    3.75    3.89
   9  12  -1    6.44    3.53
   9  12  -1    5.19    4.44
  -9 -12  -1    9.25    4.03
   9 -12   1    1.05    2.93
  -9  12   1   -1.64    6.93
  -9 -12  -1    7.20    4.58
   9  12   1    9.07    4.93
  -9  12  -1    6.92    7.34
  -9  12  -1    6.26    4.09
   9 -12  -1    9.48    4.58
   9  12   1    1.62    2.65
   9  12   1    6.24    3.22
  -9 -12  -2   21.70    5.32
   9  12  -2   15.85    4.23
  -9  12   2   12.56    4.31
  -9 -12  -2   19.36    4.73
   9  12  -2   17.70    5.02
  -9 -12  -2   14.50    4.24
  -9  12   2    6.86    6.83
   9 -12   2   14.64    3.80
  -9  12  -2   21.39    7.40
   9  12   2   16.31    5.52
   9  12   2   13.78    2.87
   9 -12  -2   12.78    4.64
  -9  12  -2   13.01    4.28
   9  12  -3    8.66    4.76
   9 -12   3   -2.10    3.70
   9  12  -3    5.72    4.08
  -9 -12  -3   10.50    5.44
  -9 -12  -3    6.46    4.80
  -9 -12  -3    7.76    4.06
  -9  12   3   -3.84    5.96
   9  12   3    0.93    5.69
   9  12   3    7.53    3.10
  -9  12  -3   -0.36    3.89
  -9 -12   3    7.47    3.64
   9 -12  -3    6.23    4.55
  -9  12  -3   16.25    6.45
  -9  12   4   -1.79    6.26
   9  12  -4   14.32    6.02
  -9 -12  -4   20.36    6.00
  -9 -12  -4   10.02    5.81
   9  12  -4    6.86    4.61
   9 -12   4    0.92    4.17
  -9 -12  -4    7.86    4.20
   9 -12   4   -3.36    4.94
   9 -12  -4    3.64    3.61
  -9 -12   4    6.23    3.20
   9 -12  -4    4.39    4.88
  -9  12  -4    5.29    4.29
  -9  12  -4   12.72    6.32
   9  12   4    4.48    6.19
  -9 -12   4    3.91    3.82
  -9 -12  -5    9.49    4.61
  -9 -12  -5    5.82    5.98
   9 -12   5   -5.37    5.02
   9  12  -5    8.26    5.33
   9  12  -5    7.31    6.06
   9 -12   5   -2.12    4.32
  -9 -12  -5   10.94    6.31
  -9  12   5   -7.27    5.87
  -9 -12   5    5.44    3.53
  -9 -12   5   -3.21    3.95
   9 -12  -5    2.03    3.73
   9 -12  -5    5.58    5.32
  -9  12  -5   16.13    6.34
   9  12   5    4.58    6.39
   9  12  -6    2.25    5.29
  -9  12   6   -8.99    6.36
   9 -12   6    6.99    5.30
   9 -12   6    2.82    6.11
  -9 -12  -6   13.62    6.65
   9  12  -6   14.27    6.64
  -9 -12  -6   20.29    7.07
  -9 -12  -6   14.13    4.63
  -9 -12   6    4.51    3.63
   9 -12  -6    5.06    3.94
  -9  12  -6   15.71    6.53
  -9 -12   6    3.95    4.60
   9  12   6    2.05    6.77
  -9 -12   6    5.03    5.68
   9 -12  -6    3.55    5.19
 -10  12   0    8.60    4.19
  10  12   0    2.86    2.76
  10 -12   0    6.11    4.65
  10  12   0    8.14    4.30
 -10  12   0    2.33    7.62
  10  12   0    6.88    3.41
 -10 -12  -1    2.66    4.70
  10  12  -1    9.48    3.76
 -10  12   1    6.75    4.15
  10  12  -1    8.26    4.56
 -10  12   1   -4.11    6.91
  10 -12   1    3.49    2.95
  10  12   1    4.09    2.79
  10 -12  -1    4.79    4.54
  10  12   1    7.85    3.24
 -10  12  -1    5.75    7.26
  10  12   1    7.53    4.91
 -10  12  -1    2.94    4.17
 -10 -12  -2    9.86    5.17
 -10 -12  -2   14.16    4.31
 -10  12   2   -1.08    6.70
  10  12  -2    4.13    4.54
  10 -12   2    4.62    3.43
  10  12  -2    5.06    4.03
 -10 -12  -2    8.89    4.63
 -10  12   2    5.72    4.16
 -10  12  -2   11.24    7.00
  10  12   2    9.17    3.26
 -10  12  -2    4.22    4.22
  10  12   2    8.86    2.91
  10 -12  -2    6.16    4.67
  10  12   2   10.27    5.34
 -10 -12  -3   10.87    5.28
  10 -12   3    1.73    3.83
 -10 -12  -3    5.50    4.16
 -10 -12  -3    8.86    5.58
  10  12  -3    6.97    4.67
 -10  12   3  -11.72    6.49
 -10  12   3    3.57    4.30
  10  12  -3    1.91    4.23
 -10  12  -3    6.54    6.36
  10 -12  -3   -0.25    4.76
 -10 -12   3    2.25    3.76
  10  12   3    7.64    3.17
  10  12   3    0.94    5.65
  10  12   3    6.28    2.76
 -10  12  -3   -1.30    4.05
  10 -12   4    1.05    4.08
 -10 -12  -4   12.05    4.57
 -10 -12  -4    6.79    5.87
  10  12  -4   10.89    5.13
 -10  12   4   -3.03    6.42
  10 -12   4    1.96    5.04
 -10 -12  -4   10.87    6.17
 -10  12  -4   13.19    6.54
 -10  12  -4    1.19    4.36
 -10 -12   4    0.53    3.79
 -10 -12   4    7.25    3.36
  10  12   4   12.07    6.73
  10 -12  -4   -0.21    4.94
  10 -12   5   -0.29    5.39
 -10 -12  -5   10.80    6.28
  10  12  -5    9.73    5.46
 -10 -12  -5    9.32    4.72
  10 -12   5   -1.32    4.27
 -10  12   5   -5.76    6.42
 -10 -12  -5   11.30    6.55
  10  12   5   -0.90    6.28
 -10 -12   5    1.02    3.17
  10 -12  -5    4.06    5.26
 -10  12  -5   16.68    6.47
 -10 -12   5    2.36    4.04
 -11  12   0    4.85    4.27
  11  12   0   16.12    3.74
  11  12   0   10.61    3.28
  11  12   0   11.98    4.58
 -11  12   0    9.87    8.18
  11 -12   0   12.39    4.94
  11 -12   1   18.40    3.31
  11  12  -1   15.19    4.82
  11  12  -1   12.13    3.91
 -11  12   1    5.23    7.55
 -11  12   1   11.24    4.45
 -11 -12  -1   16.53    5.18
 -11 -12  -1   14.02    4.43
  11  12   1   12.46    5.05
  11  12   1   15.36    3.65
  11  12   1   13.44    3.26
 -11  12  -1   10.97    7.72
  11 -12  -1    7.64    4.98
 -11  12  -1    7.34    4.59
 -11 -12  -2   10.32    4.44
  11  12  -2    6.57    4.81
 -11 -12  -2    9.94    4.91
 -11  12   2   -3.01    6.90
  11 -12   2   -1.04    3.31
  11  12  -2    9.46    4.24
 -11  12   2    3.41    4.26
 -11 -12  -2    8.05    5.53
  11  12   2    4.97    5.47
 -11  12  -2    4.73    4.56
 -11  12  -2   12.43    7.19
  11 -12  -2    3.18    4.84
  11  12   2    7.84    3.32
  11  12   2    5.33    2.88
 -11 -12  -3   15.70    6.10
  11  12  -3   10.37    5.10
 -11  12   3   -0.73    7.17
  11 -12   3    5.78    4.65
 -11 -12  -3    6.40    4.59
 -11 -12  -3    9.70    5.66
  11 -12   3    2.66    3.81
 -11  12   3    6.53    4.50
  11  12  -3   11.12    4.81
 -11  12  -3    2.30    4.40
  11 -12  -3    7.46    5.06
  11  12   3   11.36    2.89
 -11 -12   3    8.25    4.06
  11  12   3   12.38    6.21
 -11  12  -3   11.03    6.58
  11  12   3    7.75    3.34
  11 -12   4    4.90    5.11
 -11 -12  -4    5.22    6.04
 -11 -12  -4   12.50    6.45
 -11  12   4    7.09    4.70
  11 -12   4    3.04    4.19
  11  12  -4   15.53    5.48
 -11 -12  -4    6.01    4.51
 -11  12   4   -2.33    6.57
  11  12  -4    5.18    4.78
 -11 -12   4    2.37    3.97
  11 -12  -4    4.58    5.29
  11  12   4    1.48    6.46
 -11  12  -4    2.58    4.64
 -11  12  -4   16.99    6.59
 -11 -12  -5   19.52    6.64
  11 -12   5    3.03    5.56
 -11 -12  -5   12.27    4.66
 -11  12   5   -1.43    6.86
 -11  12   5   11.79    5.55
 -11 -12  -5   12.27    6.77
  11 -12   5    3.65    4.71
  11  12  -5   15.58    5.67
 -11 -12   5    5.46    4.44
  11  12   5    7.15    6.77
  11 -12  -5    3.03    5.78
 -11  12  -5   20.68    6.39
 -11 -12   5    1.35    3.07
 -12  12   0    7.69    8.00
 -12  12   0   10.46    4.85
  12  12   0   17.54    3.80
  12  12   0   20.26    4.12
 -12 -12   0   20.05    4.80
  12  12   0   14.20    4.70
  12 -12   1   10.86    3.24
 -12 -12  -1   13.77    4.92
 -12 -12  -1   10.05    4.61
  12  12  -1   12.56    4.19
 -12  12   1   -6.55    7.68
  12  12  -1   14.52    4.90
 -12  12   1    7.10    4.55
 -12 -12  -1   16.10    5.46
 -12  12  -1    7.71    7.36
  12 -12  -1   11.24    5.20
  12  12   1   13.10    3.41
 -12  12  -1    7.14    4.70
  12  12   1   12.76    3.63
  12  12   1   17.25    5.34
 -12  12   2    5.32    4.53
 -12 -12  -2   12.88    5.82
 -12 -12  -2    9.86    5.35
 -12 -12  -2   10.42    4.62
  12  12  -2    9.70    4.45
 -12  12   2   -8.05    7.33
  12  12  -2   10.26    5.09
  12 -12   2    1.92    3.52
  12  12   2    6.78    3.09
 -12  12  -2    5.48    4.60
 -12  12  -2   14.25    7.34
  12  12   2    8.89    3.63
  12  12   2   12.41    5.67
  12 -12  -2    6.83    5.22
 -12  12   3   -5.54    7.17
 -12 -12  -3    6.16    5.97
  12 -12   3    0.96    3.88
  12 -12   3    5.59    4.75
 -12 -12  -3    7.94    5.89
 -12  12   3    6.52    4.66
  12  12  -3    8.05    4.81
  12  12  -3    4.10    4.67
 -12 -12  -3    7.66    4.82
 -12  12  -3    3.83    4.77
 -12  12  -3   23.33    6.87
  12  12   3   11.08    3.57
  12 -12  -3    0.46    5.06
  12  12   3    8.79    3.07
  12  12   3    5.40    6.18
  12 -12   4    4.76    5.29
  12 -12   4    4.48    4.18
  12  12  -4    6.70    5.02
 -12 -12  -4   11.81    6.77
  12  12  -4    8.69    5.12
 -12  12   4    3.58    4.63
 -12 -12  -4   10.23    4.62
 -12  12   4   -1.68    7.00
 -12 -12  -4   18.02    6.47
 -12  12  -4    4.73    4.93
  12  12   4   15.65    3.58
 -12 -12   4    6.84    4.23
  12  12   4   13.91    6.88
 -12  12  -4   19.57    6.57
  12 -12  -4    4.13    5.42
 -13  12   0    0.67    7.99
  13  12   0   20.38    5.03
 -13 -12   0    6.78    4.76
  13  12   0    8.32    3.92
 -13  12   0    3.86    4.82
  13  12   0    7.71    3.58
  13  12  -1   18.23    5.01
  13  12  -1    5.60    3.98
 -13  12   1    5.19    4.76
 -13  12   1   -4.96    8.26
 -13 -12  -1    9.95    5.63
 -13 -12  -1    4.05    4.55
  13 -12   1    7.83    3.10
 -13 -12  -1    6.45    5.00
  13  12   1    9.04    3.39
  13  12   1   10.89    3.70
 -13  12  -1    3.19    4.84
  13  12   1   15.20    5.35
 -13  12  -1   13.45    7.48
  13 -12  -1   -1.15    4.94
  13  12  -2    7.72    4.52
 -13  12   2    3.82    4.67
 -13 -12  -2   11.04    4.73
 -13  12   2   -7.95    7.43
  13  12  -2   10.30    5.03
 -13 -12  -2   15.77    5.60
 -13 -12  -2   16.67    6.35
  13 -12   2    3.60    3.31
  13  12   2    8.53    5.86
  13 -12  -2    3.42    5.30
  13  12   2    5.71    3.58
 -13  12  -2   19.17    7.22
 -13  12  -2   -1.05    4.78
  13  12   2    7.66    3.09
 -13  12   3  -11.98    7.00
 -13  12   3    4.98    4.86
 -13 -12  -3   18.65    6.53
  13 -12   3    0.74    4.43
 -13 -12  -3    4.91    4.99
  13  12  -3    5.89    4.99
  13  12  -3    6.13    4.75
 -13 -12  -3   19.54    6.26
  13 -12   3    8.16    3.96
  13 -12  -3    1.36    5.31
 -13  12  -3    1.53    4.94
  13  12   3   13.53    3.75
  13  12   3    4.25    2.95
 -13  12  -3   27.18    6.82
  13  12   3   17.60    6.43
  13  12  -4   12.35    5.46
  13 -12   4    9.26    5.42
 -13 -12  -4   14.12    6.54
 -13 -12  -4   20.17    7.40
 -13  12   4  -10.59    7.06
  13  12  -4    0.38    5.06
  13 -12   4    4.40    4.34
 -13  12   4    2.14    4.92
 -13 -12  -4    8.24    4.98
  13  12   4   13.92    3.63
  13 -12  -4    0.28    5.53
 -13 -12   4    2.94    4.06
 -13  12  -4    5.17    5.09
  13  12   4    9.81    6.71
 -13  12  -4   26.72    6.64
  14  12   0   16.10    5.04
 -14 -12   0    3.82    4.81
  14  12   0    6.07    4.06
 -14  12   0   -2.58    4.74
  14  12   0    2.56    3.50
 -14  12   0   -1.51    7.66
  14 -12   1   12.05    3.40
 -14 -12  -1   15.72    5.99
 -14  12   1    2.28    8.55
 -14  12   1    7.31    5.30
  14  12  -1    1.53    4.26
 -14 -12  -1    8.72    5.25
 -14 -12  -1   13.88    5.10
  14  12  -1   19.64    5.21
  14  12   1   19.55    4.14
 -14  12  -1    5.09    5.06
  14  12   1   17.93    5.50
 -14  12  -1   21.78    7.70
  14  12   1    7.62    3.27
 -14 -12  -2    8.20    4.99
 -14  12   2   -8.98    7.73
 -14 -12  -2   23.19    6.56
  14  12  -2   10.37    4.60
 -14  12   2    2.13    4.88
  14 -12   2    4.96    3.42
 -14 -12  -2   12.82    6.14
  14  12  -2   14.38    5.17
  14  12   2   10.54    3.47
  14  12   2   10.18    3.88
  14  12   2    9.25    5.80
 -14  12  -2    6.12    5.04
  14 -12  -2   -1.20    5.37
 -14  12  -2   19.16    6.88
  14 -12   3    4.76    3.79
  14  12  -3    5.07    5.04
 -14 -12  -3   11.10    5.09
  14  12  -3   22.87    5.53
 -14 -12  -3   14.04    6.55
 -14  12   3    7.38    5.17
  14 -12   3    6.69    4.67
 -14 -12  -3   11.11    7.00
  14  12   3    9.34    3.26
  14 -12  -3    1.42    5.57
  14  12   3   10.81    3.75
  14  12   3   22.03    6.72
 -14  12  -3    2.28    5.02
  15  12   0   15.87    5.12
  15  12   0    9.02    3.70
 -15  12   0    1.13    7.66
  15  12   0    7.11    4.24
 -15 -12   0    9.60    5.28
 -15  12   0    3.84    5.06
  15  12  -1    6.83    4.47
 -15  12   1  -11.66    8.25
 -15  12   1    1.46    5.12
 -15 -12  -1    9.11    5.49
 -15 -12  -1   11.63    6.06
  15  12  -1   21.27    5.40
 -15 -12  -1    9.27    5.14
  15  12   1    7.73    3.49
  15  12   1   12.21    4.00
 -15  12  -1   15.90    7.16
  15  12   1   16.25    5.48
 -15  12  -1    5.51    5.25
  15 -12   2    1.17    3.27
 -15  12   2   -1.13    5.23
 -15 -12  -2    1.92    5.07
  15  12  -2   15.90    5.72
  15  12  -2   15.09    4.79
 -15 -12  -2   19.62    6.65
 -15 -12  -2    8.81    5.68
 -15  12  -2   -1.44    4.91
  15  12   2   16.33    6.18
  15 -12  -2   -3.07    5.63
  15  12   2    6.50    3.52
  15  12   2   17.02    4.33
 -16  12   0   -0.18    7.77
  16  12   0    7.95    4.43
 -16  12   0   -1.17    5.40
  16  12   0    4.65    3.74
   0  13   0   -2.70    7.14
   0  13   1    4.21    6.89
   0 -13  -1    2.29    3.92
   0  13  -1   -6.16    6.73
   0 -13  -1    2.76    3.64
   0 -13  -1   -2.06    3.25
   0 -13   2   -0.34    3.99
   0  13   2    3.05    6.68
   0 -13  -2   -2.37    3.47
   0 -13  -2   -3.52    4.07
   0 -13  -2    4.16    3.75
   0  13  -2    2.42    6.60
   0 -13   3   -0.42    4.50
   0 -13   3   -1.05    4.10
   0  13   3    0.95    5.96
   0 -13  -3    2.25    4.68
   0 -13  -3    5.52    4.14
   0 -13  -3    0.25    3.61
   0  13  -3   -1.30    6.02
   0  13   4    1.49    5.89
   0 -13   4    2.03    4.05
   0 -13   4   -4.60    4.48
   0 -13  -4    5.10    4.44
   0 -13  -4    8.93    4.70
   0  13  -4    3.11    4.34
   0 -13   4    7.71    4.69
   0 -13  -4    0.57    3.32
   0  13  -4    5.32    5.80
   0  13   5   -3.90    5.77
   0 -13  -5    7.85    3.94
   0 -13  -5    6.68    5.16
   0 -13   5    2.73    4.99
   0  13  -5    9.25    5.28
   0 -13  -5    9.51    5.08
   0 -13   5    0.73    4.68
   0  13  -5   14.93    6.63
   0 -13   5   -3.97    3.99
   0  13   6   -6.04    6.04
   0  13   6   -4.67    5.56
   0 -13  -6   12.48    4.11
   0  13  -6   14.83    6.75
   0 -13   6    0.54    5.16
   0 -13  -6    6.14    5.57
   0 -13   6   -2.46    4.02
   0 -13   6    2.43    4.96
   0 -13  -6   13.46    5.88
   0  13  -7    7.28    7.03
   0 -13  -7    7.04    6.04
   0 -13   7   -1.41    5.28
   0 -13  -7   15.91    4.14
   0 -13   7   -1.48    4.66
   0 -13   7   -4.94    6.06
   0  13   7   -3.24    7.14
   0 -13  -7    9.90    6.00
   0  13   7  -12.69    7.08
   1  13   0    5.32    7.26
  -1  13   0   -0.61    7.28
  -1  13   1    8.58    6.78
  -1 -13  -1    3.51    3.89
   1  13  -1   -2.08    6.53
  -1  13  -1    3.11    6.97
   1 -13  -1    0.73    3.83
   1  13   1    2.18    6.78
  -1 -13   1    7.30    3.66
   1 -13  -1    3.62    3.72
   1 -13  -1    5.02    3.38
  -1  13   2    4.34    6.72
   1 -13   2    1.95    4.19
   1  13  -2    2.66    6.38
  -1 -13  -2    3.62    4.41
  -1 -13  -2    4.50    3.90
  -1 -13  -2   -1.60    3.60
  -1  13  -2   -2.20    6.32
   1 -13  -2    9.79    4.49
  -1 -13   2    8.98    4.53
   1 -13  -2    3.66    4.15
   1  13   2    3.70    6.63
   1 -13  -2    2.26    3.60
  -1 -13   2    4.18    4.06
  -1 -13  -3    3.26    4.77
  -1 -13  -3   -0.14    4.07
   1  13  -3    1.06    4.30
   1 -13   3    8.65    4.92
   1 -13   3    2.73    4.23
   1  13  -3    7.63    6.24
  -1  13   3    3.61    6.13
  -1 -13  -3    3.68    3.73
  -1 -13   3   11.36    4.11
  -1 -13   3   10.47    4.87
   1 -13  -3    7.42    3.86
   1 -13  -3    4.08    4.05
  -1  13  -3   -1.46    6.05
   1 -13  -3    2.95    4.48
  -1 -13   3    8.79    4.23
   1  13   3    4.24    6.30
   1  13  -4    8.88    4.70
   1 -13   4   13.42    4.34
  -1  13   4    9.91    6.26
  -1 -13  -4   16.96    4.98
  -1 -13  -4   11.67    3.59
   1  13  -4   13.52    6.32
  -1 -13  -4    9.08    4.59
   1 -13   4    8.22    4.97
  -1 -13   4    6.39    4.52
   1  13   4   10.07    4.89
   1 -13  -4    7.83    4.60
   1  13   4    5.46    5.81
   1 -13  -4   18.17    4.91
  -1 -13   4    5.21    4.57
  -1 -13   4    6.86    4.02
  -1  13  -4   12.91    6.21
   1 -13  -4   11.70    3.79
  -1 -13  -5    7.49    5.11
   1  13  -5   12.63    5.26
   1 -13   5   -3.30    4.65
   1 -13   5    0.23    4.22
   1  13  -5   15.60    6.71
  -1 -13  -5   16.58    5.50
  -1 -13  -5    6.99    3.68
   1 -13   5    5.64    4.85
  -1  13   5    2.78    6.29
   1 -13  -5    8.18    3.83
   1 -13  -5   11.48    5.35
  -1 -13   5    1.42    4.69
   1  13   5    0.78    5.18
   1 -13  -5    8.48    5.28
  -1 -13   5    3.22    5.09
   1  13   5   -2.40    5.84
  -1 -13   5   -0.40    3.96
  -1  13  -5    9.62    6.14
   1 -13   6    5.17    5.44
  -1  13   6   11.57    6.73
   1  13  -6   22.89    7.27
  -1 -13  -6   19.67    4.35
  -1 -13  -6   21.58    6.09
   1 -13   6    8.74    5.86
   1 -13   6   -0.01    4.35
  -1 -13  -6   21.66    6.02
  -1 -13   6   12.23    6.05
   1  13   6    3.16    6.37
   1 -13  -6   10.40    6.06
  -1 -13   6    6.99    4.26
   1 -13  -6   10.22    5.79
  -1 -13   6    5.51    5.02
   1 -13  -6   16.79    4.50
  -1  13  -6   16.40    6.95
   1  13   6    3.02    6.01
   1 -13   7    0.33    4.83
  -1  13   7    3.91    7.34
  -1 -13  -7   25.49    6.43
   1 -13   7    5.62    6.37
  -1 -13  -7   17.95    4.24
   1 -13   7   -1.77    5.58
   1  13  -7   14.23    7.13
  -1 -13  -7   19.33    6.25
   1 -13  -7   12.27    6.31
   1  13   7    9.87    7.70
   1 -13  -7   14.80    4.46
   1  13   7   -2.85    6.58
  -1 -13   7    0.81    5.98
   1 -13  -7   12.65    6.27
  -1 -13   7    4.57    4.81
  -1 -13   7    4.31    5.38
  -1  13  -7   18.23    7.46
  -2  13   0   11.91    7.64
   2  13   0   12.90    7.41
   2  13  -1    6.94    6.88
  -2 -13  -1    2.68    3.47
  -2  13   1    4.45    6.56
  -2 -13  -1    1.21    3.92
   2  13   1    4.48    6.96
   2 -13  -1    5.20    4.00
   2 -13  -1    5.20    3.81
   2 -13  -1   -0.69    3.20
  -2 -13   1    8.81    3.63
  -2  13  -1    1.59    7.20
   2 -13   2   10.07    4.38
   2  13  -2   14.07    4.51
  -2  13   2   14.56    7.19
  -2 -13  -2    9.75    4.19
  -2 -13  -2   18.07    4.10
   2  13  -2   13.06    6.87
  -2 -13  -2    7.02    4.71
   2 -13  -2   15.23    4.72
   2  13   2   10.59    6.73
  -2  13  -2    9.73    7.00
   2 -13  -2   14.87    3.79
   2 -13  -2   13.89    4.42
  -2 -13   2   17.50    4.07
   2  13   2   15.52    4.89
   2 -13   3   11.05    4.56
   2  13  -3   13.33    6.66
   2 -13   3    8.58    5.02
  -2 -13  -3   13.70    4.36
   2  13  -3   12.55    4.58
  -2 -13  -3    8.35    3.75
  -2  13   3    6.07    6.15
  -2 -13  -3   12.04    4.93
  -2 -13   3    7.25    4.64
   2 -13  -3   10.81    4.68
  -2  13  -3    3.87    6.08
   2  13   3    7.87    5.01
  -2 -13   3   12.69    4.21
   2 -13  -3   10.20    3.71
   2 -13  -3   12.23    4.80
   2  13   3    7.14    6.35
   2 -13   4   -2.41    4.13
  -2 -13  -4   12.73    3.67
  -2 -13  -4    6.74    4.38
   2 -13   4    1.03    4.73
   2  13  -4    7.60    5.94
   2  13  -4    1.02    4.22
  -2 -13  -4    8.12    4.74
  -2  13   4   -0.39    5.92
  -2 -13   4    4.33    3.76
   2 -13  -4    8.28    4.61
  -2 -13   4    1.58    4.49
   2  13   4    3.94    4.91
   2 -13  -4    2.58    4.40
   2  13   4   -1.02    5.50
  -2 -13   4    8.53    4.65
  -2  13  -4    9.47    5.93
   2 -13  -4    6.45    3.61
  -2 -13  -5   12.73    4.11
  -2  13   5    2.57    6.32
   2 -13   5    5.36    4.83
  -2 -13  -5   17.98    5.37
   2  13  -5    9.35    6.13
   2 -13   5   -0.14    4.29
  -2 -13  -5   12.35    5.34
   2 -13   5   -0.54    5.39
   2  13  -5    3.58    4.89
   2 -13  -5   11.67    5.32
  -2 -13   5    7.45    4.13
  -2 -13   5    2.94    5.21
  -2  13  -5   13.00    6.41
   2  13   5    4.66    5.50
   2  13   5    2.99    6.01
   2 -13  -5    6.84    3.78
   2 -13  -5    8.23    5.29
  -2 -13   5    5.93    4.74
  -2 -13  -6   11.37    4.11
   2  13  -6    5.12    5.69
   2 -13   6   -0.08    5.66
   2  13  -6   12.85    7.03
   2 -13   6    2.68    4.41
  -2  13   6    0.28    6.59
  -2 -13  -6   19.52    6.04
   2 -13   6    1.41    5.50
  -2 -13  -6   20.92    5.77
   2 -13  -6    8.53    5.82
  -2  13  -6   10.26    6.65
  -2 -13   6    2.36    4.18
   2  13   6   -1.87    6.13
   2  13   6   -5.61    5.89
   2 -13  -6    2.69    5.52
  -2 -13   6   -1.11    4.86
  -2 -13   6    5.72    5.73
   2 -13  -6    5.45    4.12
   2  13  -7   11.01    7.30
  -2  13   7   -3.79    7.11
  -2  13  -7    8.30    7.02
   2  13   7   -2.87    6.47
  -3  13   0    5.90    7.51
   3  13   0    1.38    3.90
   3 -13   0   -0.45    3.63
   3  13   0    4.12    7.00
   3  13  -1    4.45    6.84
  -3 -13  -1    4.09    4.11
   3  13  -1    4.77    4.11
  -3  13   1    3.94    6.61
   3  13   1    5.66    4.37
   3 -13  -1    2.99    3.18
  -3  13  -1    4.57    7.05
   3 -13  -1    2.89    3.98
   3  13   1    0.04    7.04
  -3 -13   1    1.18    3.51
   3  13  -2    9.79    6.54
  -3 -13  -2    6.63    4.15
   3 -13   2    8.60    4.40
  -3 -13  -2   11.24    4.14
  -3 -13  -2   11.75    4.93
   3  13  -2    8.08    4.58
  -3  13   2    7.33    6.96
   3 -13  -2    7.38    4.43
   3 -13  -2   10.51    4.40
   3  13   2   10.01    6.75
  -3 -13   2    6.98    3.82
   3 -13  -2    6.29    3.63
   3  13   2    9.77    4.97
  -3  13  -2    4.87    6.67
  -3 -13   2   13.52    4.60
   3 -13   3   -0.65    4.33
   3 -13   3   -2.17    4.86
  -3  13   3    1.48    5.97
  -3 -13  -3    5.51    4.25
   3  13  -3    3.76    6.03
  -3 -13  -3    7.17    3.99
  -3 -13  -3    6.62    4.87
   3  13  -3    4.21    4.34
   3 -13  -3    5.79    4.50
   3 -13  -3    3.20    3.33
  -3  13  -3    4.62    5.88
   3  13   3   -3.38    5.97
  -3 -13   3    0.41    3.66
  -3 -13   3    4.94    4.31
   3 -13  -3    0.53    4.30
   3  13   3    4.32    5.19
   3  13  -4   12.05    5.92
  -3 -13  -4    8.61    4.94
  -3 -13  -4    8.74    3.89
   3  13  -4    2.10    4.49
   3 -13   4    1.37    5.11
  -3  13   4   -0.56    5.66
   3 -13   4   -7.37    4.15
  -3 -13  -4    8.96    4.58
   3 -13  -4    6.01    4.62
   3 -13  -4    3.93    3.34
   3  13   4    1.72    5.67
   3 -13  -4   -0.03    4.38
  -3 -13   4   -1.89    4.23
   3  13   4    4.96    5.17
  -3 -13   4    6.10    4.52
  -3 -13   4    7.57    3.84
  -3  13  -4    5.20    5.52
   3 -13   5    3.39    5.61
   3  13  -5   10.74    5.52
   3  13  -5   13.06    6.39
  -3 -13  -5    9.59    4.20
  -3 -13  -5   25.06    6.01
   3 -13   5    4.79    4.64
  -3  13   5    7.01    6.48
  -3 -13  -5   25.81    5.97
   3 -13  -5   12.23    5.37
  -3  13  -5    9.37    6.36
  -3 -13   5   12.02    5.44
   3 -13  -5   10.48    5.36
   3 -13  -5    8.98    3.96
  -3 -13   5    2.20    4.57
   3  13   5    2.92    6.05
  -3 -13   5    5.04    3.86
   3  13   5    8.23    5.78
  -3 -13  -6   14.58    4.43
   3  13  -6   19.00    7.27
   3 -13   6   -5.93    5.56
   3 -13   6    2.75    5.57
  -3 -13  -6   25.57    6.51
   3  13  -6    6.36    5.72
   3 -13   6   -1.18    4.34
  -3 -13  -6   23.66    6.32
  -3  13   6    0.27    6.61
   3 -13  -6    9.99    4.15
   3  13   6    7.19    6.39
   3  13   6    4.88    6.32
  -3 -13   6    5.68    4.16
  -3 -13   6    2.72    4.83
  -3  13  -6   18.49    6.97
  -3 -13   6    4.25    5.61
   3 -13  -6    7.89    5.66
   3 -13  -6   11.39    5.85
  -4  13   0   11.63    7.76
   4  13   0    9.91    6.94
   4  13   0   11.43    4.33
   4 -13   0   11.24    4.13
   4  13  -1   48.74    5.89
  -4  13   1   29.96    7.51
  -4 -13  -1   52.78    5.94
   4  13  -1   44.42    7.92
  -4  13  -1   45.44    4.90
  -4  13  -1   30.61    8.18
   4 -13  -1   46.34    5.56
   4  13   1   48.87    6.46
   4  13   1   45.96    8.32
  -4 -13   1   54.30    4.45
   4 -13  -1   49.78    4.23
  -4  13   2   20.92    7.53
   4  13  -2   26.02    7.01
  -4 -13  -2   30.12    5.47
   4 -13   2   17.86    4.40
  -4 -13  -2   28.69    4.88
  -4 -13  -2   27.36    4.58
   4  13  -2   30.82    5.26
  -4 -13   2   24.91    4.30
   4  13   2   26.64    5.60
   4  13   2   22.05    7.11
  -4  13  -2   26.41    7.48
   4 -13  -2   27.26    5.03
  -4 -13   2   27.56    4.77
   4 -13  -2   32.05    4.97
   4 -13  -2   28.87    4.06
  -4 -13  -3   19.77    4.81
   4 -13   3   13.51    4.39
  -4  13   3   13.31    6.35
   4  13  -3   17.99    4.88
   4  13  -3   18.62    6.44
   4 -13   3   13.83    5.27
  -4 -13  -3   18.70    4.26
  -4 -13  -3   18.42    5.20
   4  13   3   20.48    5.64
   4 -13  -3   16.69    4.91
   4 -13  -3   21.67    4.76
  -4 -13   3   16.17    3.96
   4 -13  -3   22.44    3.74
  -4  13  -3   11.91    5.94
  -4 -13   3   17.68    4.51
   4  13   3   13.26    6.56
   4 -13   4   10.02    5.62
  -4 -13  -4   26.21    5.45
  -4  13   4   12.73    6.53
   4  13  -4   19.70    6.36
   4 -13   4   15.15    4.58
  -4 -13  -4   22.63    5.64
   4  13  -4   19.47    5.32
  -4 -13  -4   17.83    4.14
  -4 -13   4   14.19    4.57
  -4  13  -4   23.58    6.54
   4 -13  -4   12.21    3.61
   4 -13  -4   11.16    4.95
   4 -13  -4   19.16    4.97
  -4 -13   4   10.40    3.91
   4  13   4   15.78    5.71
  -4 -13   4   18.41    5.22
   4  13   4   11.12    6.08
   4  13  -5    8.40    6.55
  -4 -13  -5   22.03    6.04
  -4 -13  -5   17.21    4.69
   4 -13   5    5.14    4.35
  -4 -13  -5   19.55    5.81
   4 -13   5    9.67    5.83
   4  13  -5    9.36    5.51
  -4  13   5    2.47    6.32
  -4 -13   5   11.18    5.45
   4 -13  -5   10.27    4.02
   4  13   5   -0.24    5.94
   4 -13  -5    8.48    5.28
  -4 -13   5    6.20    4.72
   4 -13  -5    1.25    5.14
  -4  13  -5   16.45    6.56
   4  13   5    8.16    5.92
  -4 -13   5    2.60    3.88
   4  13  -6   14.26    6.99
   4  13  -6   10.85    5.92
   4 -13   6   -2.18    5.93
  -4 -13  -6   16.42    4.55
  -4 -13  -6   23.56    6.51
  -4 -13  -6   17.54    6.12
  -4 -13   6    3.18    3.97
  -4  13  -6    9.78    6.38
   4  13   6   -3.54    6.10
  -4 -13   6    5.35    4.75
   4  13   6    2.27    6.42
  -4 -13   6    4.42    5.58
   4 -13  -6    3.28    5.52
   4 -13  -6    4.37    5.49
   4 -13  -6    6.05    3.93
   5 -13   0    2.31    4.15
  -5  13   0    4.73    7.58
   5  13   0    5.58    4.24
   5  13   0   -0.21    6.47
  -5  13   0    3.55    3.72
  -5 -13  -1   12.09    4.63
  -5  13   1    9.82    6.86
   5  13  -1   10.06    6.42
   5  13  -1   16.13    4.68
   5 -13   1   15.05    4.24
   5  13  -1    9.35    3.65
   5 -13  -1   10.08    4.53
  -5  13  -1    8.12    7.42
  -5  13  -1   10.91    3.80
   5  13   1   12.40    7.16
  -5 -13   1   17.35    4.10
   5  13   1   13.96    5.15
   5 -13  -1   15.82    3.82
  -5 -13  -2    3.68    3.94
   5  13  -2    9.02    6.05
   5  13  -2    5.48    4.64
  -5 -13  -2    8.79    4.20
  -5 -13  -2   11.74    4.81
  -5  13   2    8.28    6.90
   5 -13   2    3.31    4.08
   5 -13  -2   10.14    3.52
  -5 -13   2    9.46    3.67
   5  13   2    3.91    6.50
  -5  13  -2    2.92    6.56
   5 -13  -2    8.80    4.57
  -5 -13   2   10.43    4.31
   5  13   2   10.78    5.17
  -5 -13  -3   10.22    4.52
   5 -13   3    6.54    4.22
  -5  13   3    4.37    6.16
   5 -13   3    7.20    5.36
   5  13  -3   19.10    6.03
  -5 -13  -3   18.08    5.18
   5  13  -3   12.82    4.83
  -5 -13  -3   13.75    4.05
   5  13   3   12.32    5.55
  -5 -13   3   14.28    3.89
   5 -13  -3   10.73    4.47
   5  13   3   -1.09    6.01
   5 -13  -3   15.43    3.70
   5 -13  -3   10.84    4.67
  -5  13  -3   15.59    6.14
  -5 -13   3    8.13    4.07
  -5 -13  -4   12.27    5.14
  -5  13   4    2.54    6.16
   5 -13   4    5.37    4.42
   5  13  -4   14.39    4.96
   5  13  -4    5.85    5.50
  -5 -13  -4    9.71    5.00
  -5 -13  -4   13.03    4.11
   5 -13   4    5.24    5.86
   5 -13  -4   11.41    4.74
   5 -13  -4   11.12    3.76
   5  13   4    0.33    5.82
  -5  13  -4   11.35    6.20
   5  13   4    9.17    5.67
  -5 -13   4    3.13    3.49
  -5 -13   4    6.29    4.29
   5 -13  -4    7.16    4.88
  -5 -13  -5   16.64    4.52
  -5 -13  -5   17.40    5.82
   5  13  -5   13.99    5.60
  -5 -13  -5   20.28    6.07
   5  13  -5   20.10    6.58
   5 -13   5    0.34    4.33
   5  13   5    5.60    6.22
  -5  13  -5   14.91    6.40
   5 -13  -5    7.91    3.71
   5 -13  -5   13.86    5.51
  -5 -13   5    7.64    5.25
  -5 -13   5    8.65    3.98
   5 -13  -5   12.77    5.31
  -5 -13   5    1.77    4.27
   5  13   5    8.02    6.10
   5  13  -6    5.56    5.53
   5  13  -6    7.33    6.44
  -5 -13  -6   16.77    6.41
   5 -13   6   -6.03    4.21
  -5 -13  -6   21.88    6.20
  -5  13   6    0.17    6.55
  -5 -13  -6    5.98    4.14
   5 -13   6   -7.16    6.27
  -5 -13   6   -4.13    3.68
  -5 -13   6   -6.59    4.40
   5  13   6   -6.55    6.16
   5 -13  -6    2.85    5.47
   5  13   6   -6.16    5.86
   5 -13  -6    4.14    5.74
   5 -13  -6    3.93    3.69
  -5 -13   6    1.70    5.50
  -5  13  -6    9.14    6.27
   6  13   0   24.54    6.77
   6 -13   0   36.98    5.04
  -6  13   0   30.80    4.61
   6  13   0   28.89    3.93
   6  13   0   28.65    5.01
  -6  13   0   30.66    8.64
   6 -13   1   41.02    4.99
  -6  13   1   29.70    7.64
   6  13  -1   44.52    6.09
   6  13  -1   40.40    7.38
   6  13  -1   41.68    4.87
  -6 -13  -1   42.64    5.60
   6 -13  -1   40.36    5.30
  -6 -13   1   41.20    4.91
  -6  13  -1   38.39    8.67
  -6  13  -1   36.50    5.04
   6  13   1   35.28    5.79
   6  13   1   34.59    7.53
   6 -13   2   22.90    4.28
  -6 -13  -2   32.90    5.33
  -6 -13  -2   35.70    4.88
   6  13  -2   30.03    5.30
   6  13  -2   34.64    6.60
  -6 -13  -2   32.08    4.51
  -6  13   2   23.70    7.27
   6 -13  -2   38.32    4.33
   6  13   2   31.01    5.94
  -6  13  -2   33.47    7.67
   6 -13  -2   37.03    5.17
  -6 -13   2   33.04    4.13
  -6 -13   2   37.19    4.79
   6  13   2   28.96    7.21
  -6 -13  -3   30.78    5.19
   6 -13   3   16.56    5.34
   6 -13   3   19.91    4.51
  -6  13   3   19.99    6.83
  -6 -13  -3   30.63    5.64
   6  13  -3   24.97    5.39
   6  13  -3   40.94    6.90
  -6 -13  -3   35.96    4.59
   6 -13  -3   24.45    3.86
   6  13   3   24.88    6.20
   6  13   3   19.48    6.54
  -6 -13   3   25.59    4.10
  -6 -13   3   25.90    4.66
   6 -13  -3   27.10    5.15
  -6  13  -3   29.19    7.09
   6  13  -4   22.36    5.46
  -6 -13  -4   25.74    4.66
  -6 -13  -4   17.32    5.30
   6 -13   4    5.61    5.98
  -6 -13  -4   20.79    5.67
  -6  13   4   14.32    6.59
   6  13  -4   19.24    6.52
   6 -13   4   17.08    4.76
  -6 -13   4   12.16    4.41
   6 -13  -4   17.74    3.91
   6  13   4   15.70    6.16
   6 -13  -4   19.89    5.18
   6 -13  -4   18.86    5.26
  -6 -13   4   10.95    4.04
  -6  13  -4   19.02    6.79
   6  13   4    5.90    6.03
   6 -13   5    3.33    4.50
   6  13  -5   10.95    5.39
   6  13  -5   22.44    6.82
  -6 -13  -5   12.12    4.33
  -6 -13  -5   30.82    6.18
   6 -13   5    0.17    5.78
  -6  13   5    3.00    6.57
  -6 -13  -5   15.33    5.93
   6 -13  -5    5.86    5.06
  -6  13  -5   27.14    6.94
  -6 -13   5   13.34    5.51
   6 -13  -5   13.34    4.02
  -6 -13   5    6.38    3.82
   6  13   5   10.17    6.39
   6 -13  -5   13.11    5.20
  -6 -13   5    6.70    4.41
   6  13   5   -2.64    5.92
   6  13  -6   15.18    7.03
   6 -13   6    7.38    4.97
  -6 -13  -6   15.99    6.44
  -6 -13  -6   19.97    6.33
  -6  13   6   -1.30    6.54
   6  13  -6    4.97    5.73
  -6 -13  -6   15.19    4.54
   6 -13   6   -6.77    6.21
  -6  13  -6   13.46    6.34
   6  13   6    3.24    6.37
   6 -13  -6    9.98    3.80
  -6 -13   6    7.62    6.06
   6 -13  -6   13.36    5.82
   6 -13  -6   13.41    5.79
   6  13   6   -5.35    6.40
  -6 -13   6    3.31    4.03
  -6 -13   6    1.51    4.74
   7 -13   0   17.00    4.66
   7  13   0   12.54    4.58
  -7  13   0   11.87    8.26
   7  13   0   16.06    3.50
  -7  13   0   15.01    4.28
   7  13  -1   16.50    5.66
  -7 -13  -1   16.53    4.65
   7 -13   1   11.18    4.32
  -7  13   1    8.03    7.02
   7  13  -1    7.99    4.63
   7  13  -1    8.60    3.69
  -7  13   1    8.31    4.23
  -7  13  -1    8.40    3.80
  -7  13  -1    9.24    7.38
   7  13   1   13.61    5.11
   7 -13  -1   13.55    4.78
   7  13  -2   16.01    5.32
   7  13  -2    2.32    3.66
  -7 -13  -2    2.12    4.58
   7 -13   2    0.40    3.52
  -7  13   2   -0.23    6.32
   7  13  -2    8.45    4.60
  -7 -13  -2    5.94    3.83
  -7 -13  -2    6.72    4.11
   7  13   2   10.89    5.28
  -7  13  -2    8.61    6.75
   7 -13  -2    4.96    4.56
  -7 -13   2   10.82    3.87
   7 -13  -2    4.16    3.43
   7  13  -3   12.99    5.50
   7 -13   3    5.87    4.04
  -7 -13  -3    4.88    3.83
  -7 -13  -3   14.08    4.80
   7 -13   3   -5.65    4.95
  -7  13   3    3.78    6.51
  -7 -13  -3    9.20    5.17
   7  13  -3    5.71    4.80
   7 -13  -3    8.58    4.63
   7  13   3   11.55    5.75
  -7 -13   3    6.99    3.38
   7 -13  -3    4.89    3.51
  -7 -13   3    3.01    3.97
  -7  13  -3    5.32    5.91
   7 -13   4    6.10    5.59
  -7 -13  -4   26.00    5.81
  -7 -13  -4   21.74    6.00
  -7 -13  -4   17.46    4.32
   7  13  -4   13.97    5.27
   7  13  -4   19.22    6.36
   7 -13   4    6.38    4.53
  -7 -13   4   11.30    4.30
  -7  13  -4   15.84    6.85
   7 -13  -4    5.52    3.53
   7  13   4   -2.65    6.45
   7 -13  -4    6.71    5.04
  -7 -13   4    8.65    3.81
   7  13   4   11.36    6.31
  -7 -13  -5    5.32    4.20
   7  13  -5   15.34    6.58
   7  13  -5    3.68    5.07
  -7  13   5   -7.84    5.95
   7 -13   5  -11.02    5.54
   7 -13   5    1.73    4.42
  -7 -13  -5   14.50    6.25
  -7 -13  -5    9.05    5.67
   7  13   5    1.64    6.20
  -7 -13   5    2.94    5.26
  -7 -13   5   -3.54    4.07
   7 -13  -5    2.56    3.76
  -7 -13   5    3.58    3.50
  -7  13  -5   11.67    6.27
   7 -13  -5   -0.33    5.02
  -7 -13  -6    3.25    4.26
   7  13  -6   12.09    6.60
  -7  13   6   -1.53    6.50
   7 -13   6    0.70    4.65
   7  13  -6    2.39    5.61
  -7 -13  -6   16.82    6.23
  -7 -13  -6    8.41    6.21
   7 -13   6   -6.38    6.25
   7 -13  -6    8.02    5.59
  -7 -13   6   -5.73    4.32
   7 -13  -6    9.63    5.73
  -7 -13   6   -0.05    5.58
  -7  13  -6   13.88    6.68
   7 -13  -6    1.31    3.66
  -7 -13   6   -0.89    3.62
   7  13   6   -3.00    6.45
  -8  13   0   30.79    4.71
   8 -13   0   33.99    5.20
   8  13   0   31.11    3.94
  -8  13   0   28.21    8.52
   8  13   0   36.76    5.28
   8  13  -1   33.94    4.37
   8  13  -1   31.90    5.30
  -8  13   1   26.77    7.80
   8 -13   1   32.84    4.98
  -8 -13  -1   49.42    5.64
  -8  13   1   33.32    4.91
  -8  13  -1   33.26    4.76
   8 -13  -1   33.33    5.28
   8  13   1   33.52    3.99
  -8  13  -1   17.68    7.64
   8  13   1   33.05    5.94
  -8 -13  -2   31.63    4.62
   8  13  -2   27.48    4.52
   8  13  -2   44.01    6.24
   8  13  -2   31.24    5.57
  -8 -13  -2   35.83    5.62
  -8  13   2   13.31    7.26
   8 -13   2   19.71    3.92
  -8 -13  -2   33.13    5.00
  -8  13  -2   23.01    4.48
   8  13   2   24.65    5.96
  -8 -13   2   33.79    4.71
   8 -13  -2   25.31    5.23
  -8  13  -2   30.12    7.83
   8  13  -3   21.20    5.52
  -8 -13  -3   36.50    5.61
  -8  13   3    8.28    7.14
  -8 -13  -3   33.85    6.09
  -8 -13  -3   25.41    4.64
   8  13  -3   25.14    6.17
   8 -13   3   22.85    4.56
   8 -13  -3   25.93    5.42
   8  13   3   17.93    6.19
  -8  13  -3   26.32    7.04
  -8 -13   3   20.02    3.72
  -8 -13   3   19.29    4.52
   8 -13  -3   21.09    4.32
   8  13  -4   17.37    6.21
  -8  13   4    4.13    6.56
  -8 -13  -4   14.83    5.84
   8 -13   4    8.72    5.67
   8 -13   4   10.32    4.69
  -8 -13  -4   23.82    6.10
  -8 -13  -4   19.53    4.59
   8  13  -4   12.99    5.35
  -8  13  -4   23.06    7.14
   8 -13  -4   14.97    4.23
  -8 -13   4   10.46    3.73
   8 -13  -4   14.84    5.27
  -8 -13   4    8.71    4.15
   8  13   4   15.38    6.64
  -8 -13  -5   10.43    4.51
  -8  13   5    0.81    6.76
   8 -13   5    3.25    4.50
   8  13  -5   16.68    6.61
  -8 -13  -5   17.47    6.33
  -8 -13  -5   13.67    6.57
   8  13  -5    2.47    5.20
   8 -13   5   -2.79    6.14
   8  13   5    8.01    6.46
  -8 -13   5    4.32    4.51
   8 -13  -5    6.70    4.11
  -8 -13   5    2.20    3.80
  -8  13  -5   19.96    6.69
  -8 -13   5    7.63    5.32
   8 -13  -5    2.26    5.13
   8  13  -6   20.51    7.17
  -8  13   6   -7.88    6.67
   8 -13   6   -1.52    4.54
  -8 -13  -6   14.54    4.95
  -8 -13   6    5.75    4.01
  -8  13  -6   11.76    6.47
   8 -13  -6    3.36    3.98
   9  13   0   10.85    3.53
  -9  13   0    5.43    7.81
  -9  13   0   10.90    4.28
   9  13   0   16.58    4.66
   9 -13   0   13.60    4.83
  -9 -13  -1    5.96    4.51
   9  13  -1   11.03    4.61
  -9  13   1   -1.39    3.97
  -9 -13  -1    9.35    3.89
   9  13  -1    3.51    3.50
  -9  13   1    2.61    7.11
   9  13   1    5.80    4.88
   9  13   1    5.37    2.85
  -9  13  -1    1.53    4.01
  -9  13  -1    3.91    7.11
   9 -13  -1    0.86    4.38
   9  13   1    7.84    3.22
  -9  13   2    5.02    4.20
  -9 -13  -2   15.45    4.29
   9  13  -2    8.10    4.72
  -9 -13  -2    6.92    4.50
  -9  13   2   -2.54    6.62
   9  13  -2    6.61    4.17
  -9 -13  -2    5.78    4.92
   9 -13   2    0.86    3.43
  -9  13  -2   -0.10    3.92
   9 -13  -2    5.47    4.78
   9  13   2    6.14    5.43
  -9  13  -2    6.34    7.08
   9 -13   3    2.38    3.99
   9  13  -3    3.14    4.24
  -9 -13  -3   10.55    4.43
   9  13  -3    8.24    4.95
  -9 -13  -3   11.37    5.26
  -9 -13  -3   14.97    5.55
   9  13  -3   12.10    6.14
  -9  13   3   -1.68    6.90
  -9  13  -3    4.02    4.29
  -9  13  -3   18.95    6.89
   9  13   3    8.29    6.07
   9 -13  -3   11.17    5.14
  -9 -13   3    9.68    4.24
  -9 -13  -4    5.33    5.61
   9 -13   4   -6.42    5.01
  -9 -13  -4   16.74    6.17
  -9  13   4   -0.85    6.59
   9  13  -4   10.59    5.87
   9 -13   4   -2.82    4.12
   9  13  -4   12.08    5.12
  -9 -13  -4    9.98    4.41
  -9 -13   4    1.57    4.17
   9 -13  -4    2.37    3.85
   9  13   4   -5.33    6.26
  -9  13  -4   15.93    6.88
   9 -13  -4    6.28    5.01
  -9 -13   4    1.81    3.25
   9  13  -5    8.11    6.07
  -9  13   5   -7.31    6.55
   9  13  -5    5.24    5.29
  -9 -13  -5    9.18    4.53
   9 -13   5   -6.76    5.38
  -9 -13  -5   10.91    6.29
  -9 -13  -5    6.33    5.90
   9 -13   5   -1.31    4.57
   9 -13  -5    0.43    5.25
   9  13   5   -2.32    6.40
   9 -13  -5    4.11    3.88
  -9 -13   5   -4.14    3.94
  -9  13  -5   11.81    6.45
  -9 -13   5    0.77    3.59
  10  13   0   38.03    5.80
  10 -13   0   31.29    5.55
  10  13   0   32.68    4.36
 -10  13   0   22.90    8.66
 -10  13   0   27.42    4.91
 -10 -13  -1   25.05    5.35
 -10  13   1   16.34    8.30
  10  13  -1   24.59    4.35
  10  13  -1   22.21    5.18
 -10 -13  -1   19.86    4.67
 -10  13   1   18.46    4.81
 -10 -13  -1   22.96    4.42
 -10  13  -1   23.51    4.84
 -10  13  -1   16.45    7.94
  10 -13  -1   22.52    5.36
  10  13   1   20.64    3.80
  10  13   1   26.20    5.67
  10  13   1   21.42    3.45
 -10 -13  -2   22.54    5.74
 -10 -13  -2   25.26    4.55
 -10 -13  -2   19.02    4.95
  10  13  -2   15.10    4.44
 -10  13   2    4.44    7.59
  10 -13   2   10.29    3.62
  10  13  -2   20.18    5.33
 -10  13   2   15.36    4.82
  10  13   2   14.53    5.63
  10  13   2   12.29    3.10
 -10  13  -2   18.58    7.81
  10 -13  -2   12.41    5.10
 -10  13  -2    7.25    4.53
  10  13   2   16.77    3.44
 -10 -13  -3   17.08    4.74
 -10  13   3    1.08    7.16
  10  13  -3   17.41    5.33
  10  13  -3   14.89    4.79
 -10 -13  -3   24.24    6.08
 -10  13   3   14.56    5.05
 -10 -13  -3   22.66    5.90
  10 -13   3    9.57    4.12
 -10 -13   3   16.70    4.54
 -10  13  -3    7.52    4.52
  10 -13  -3   11.67    5.41
 -10  13  -3   24.69    7.32
  10  13   3   15.22    6.25
 -10 -13  -4   15.22    6.08
  10 -13   4    8.52    5.56
 -10 -13  -4   18.11    6.57
  10  13  -4   15.78    5.60
 -10  13   4    4.54    6.86
  10 -13   4    8.81    4.44
 -10 -13  -4   15.33    4.77
 -10 -13   4   13.03    3.60
  10 -13  -4    7.63    5.49
 -10  13  -4   24.11    6.91
  10  13   4   10.13    6.83
 -10 -13   4   10.54    4.45
 -10 -13  -5   14.45    4.71
 -10 -13  -5   13.91    6.88
  10  13  -5   11.28    5.78
 -10 -13  -5   12.75    6.04
  10 -13   5    0.55    4.76
  10 -13   5   -4.59    5.54
 -10  13   5   -8.45    6.67
 -10 -13   5    4.53    4.53
  10  13   5    5.95    6.84
 -10  13  -5   20.96    6.58
 -10 -13   5   -0.98    3.51
  10 -13  -5   -1.88    5.41
 -11  13   0    1.69    4.49
  11 -13   0    5.44    5.02
  11  13   0    8.94    3.65
  11  13   0   10.88    4.59
 -11  13   0    3.53    8.24
 -11 -13  -1    9.40    4.38
 -11  13   1    1.92    4.20
 -11  13   1   -1.80    8.02
  11  13  -1   10.06    4.67
 -11 -13  -1    6.62    5.10
 -11 -13  -1    7.06    4.51
  11  13  -1    2.73    3.82
  11  13   1    8.59    3.16
  11  13   1    5.81    3.41
  11  13   1   11.67    5.22
  11 -13  -1   -1.90    4.94
 -11  13  -1    8.20    7.60
 -11  13   2    1.77    4.45
 -11 -13  -2    3.22    4.87
 -11  13   2   -9.25    7.22
  11 -13   2    5.23    3.49
  11  13  -2   13.63    4.47
 -11 -13  -2    3.62    5.33
  11  13  -2   11.71    5.10
 -11 -13  -2    9.54    4.59
  11  13   2   12.33    5.72
 -11  13  -2    1.09    4.48
  11  13   2    8.25    3.06
  11  13   2   11.58    3.53
 -11  13  -2   14.97    7.45
  11 -13  -2    0.74    5.03
 -11  13   3   -9.17    7.13
  11 -13   3    4.28    3.85
 -11 -13  -3    5.07    5.51
 -11 -13  -3    6.92    5.68
  11  13  -3    0.55    4.45
 -11  13   3    0.75    4.54
 -11 -13  -3    7.97    4.45
  11  13  -3   11.37    5.12
  11 -13  -3    1.79    5.21
 -11  13  -3   14.37    6.95
  11  13   3   13.55    6.24
 -11 -13   3    5.50    4.07
 -11  13  -3   -2.22    4.41
  11 -13   4   -3.70    5.02
 -11 -13  -4   13.06    4.70
 -11 -13  -4   16.88    6.87
 -11  13   4   10.02    5.10
 -11 -13  -4   11.32    6.04
  11  13  -4    8.62    5.09
 -11  13   4   -6.56    6.91
  11 -13   4    4.25    4.32
  11 -13  -4   -1.15    5.16
  11  13   4   -0.55    6.32
 -11  13  -4   16.77    6.67
 -11 -13   4   -3.85    3.86
 -11 -13   4    5.32    3.33
 -12 -13   0   11.51    4.44
  12  13   0   12.93    3.95
  12  13   0    9.41    4.63
 -12  13   0    3.42    8.29
 -12  13   0    8.29    4.92
 -12 -13  -1   10.49    4.97
  12  13  -1   16.71    5.17
  12  13  -1    8.68    4.05
 -12  13   1    5.95    4.66
 -12  13   1   -5.88    8.13
 -12 -13  -1   14.26    4.99
 -12 -13  -1   21.12    5.82
  12  13   1    4.47    3.16
  12 -13  -1    5.54    5.20
 -12  13  -1    2.54    4.75
  12  13   1   13.40    5.27
  12  13   1    9.37    3.82
 -12  13  -1    7.56    7.51
  12  13  -2   14.09    5.34
  12  13  -2   10.43    4.56
 -12  13   2   -7.97    7.45
  12 -13   2    4.29    3.62
 -12 -13  -2   14.93    5.22
 -12 -13  -2    6.40    5.39
 -12 -13  -2   14.15    4.73
 -12  13   2    4.77    4.62
  12  13   2   14.40    6.02
  12 -13  -2    3.61    5.31
  12  13   2    7.79    3.47
  12  13   2    5.47    3.05
 -12  13  -2    4.70    4.72
 -12  13  -2   15.98    7.36
  12  13  -3    6.45    4.77
 -12 -13  -3    6.71    4.66
 -12 -13  -3   14.69    6.25
  12 -13   3    0.95    4.04
 -12  13   3  -11.70    7.27
 -12  13   3    7.62    4.94
  12  13  -3   -0.13    4.73
 -12 -13  -3   11.06    6.09
 -12  13  -3   -0.49    4.58
  12  13   3   13.59    3.60
  12 -13  -3   -2.09    5.05
  12  13   3    7.49    5.97
 -12  13  -3   19.88    6.89
 -12 -13   3    2.61    4.00
  12 -13   4    8.41    4.39
 -12  13   4    4.40    4.95
  12  13  -4   12.65    5.54
 -12 -13  -4   19.14    6.53
  12  13  -4    8.14    5.05
 -12 -13  -4   13.26    4.66
 -12 -13  -4   10.42    6.85
  12 -13   4   -3.21    5.03
  12  13   4   11.09    6.77
  12 -13  -4   -1.24    5.32
 -12  13  -4   -0.13    6.66
 -12 -13   4    8.43    4.51
  13  13   0    4.54    3.28
 -13  13   0   -1.43    7.76
 -13 -13   0    2.14    4.52
  13  13   0   12.38    5.08
  13  13   0    7.67    3.81
 -13  13   0   -1.26    4.69
 -13  13   1   -5.26    8.38
 -13 -13  -1    3.65    5.30
 -13  13   1   -1.30    4.69
 -13 -13  -1    4.13    4.71
  13  13  -1    0.84    3.88
  13  13  -1   15.49    5.07
 -13 -13  -1    7.70    5.35
  13  13   1    8.86    5.03
 -13  13  -1    3.28    4.69
  13  13   1    3.33    3.60
 -13  13  -1    6.42    7.31
  13  13   1    6.87    3.27
  13 -13  -1   -2.06    5.14
 -13  13   2    2.94    4.58
 -13 -13  -2   13.65    6.14
 -13 -13  -2    2.49    4.73
 -13 -13  -2    8.69    5.60
  13  13  -2    9.16    4.55
  13 -13   2    0.15    3.31
  13  13  -2    7.34    4.89
  13  13   2    0.87    2.90
 -13  13  -2   18.08    7.25
 -13  13  -2    3.37    4.85
  13  13   2    6.82    5.76
  13 -13  -2   -4.77    5.15
  13  13   2    6.50    3.53
  13  13  -3   10.54    5.24
 -13 -13  -3    7.96    6.15
  13 -13   3    5.17    4.30
 -13  13   3    3.36    5.02
 -13 -13  -3   14.25    6.37
  13  13  -3    4.68    4.81
 -13 -13  -3    6.26    4.87
  13  13   3    6.92    3.57
  13  13   3    9.20    6.19
 -13  13  -3   23.97    7.08
 -13 -13   3    5.01    4.10
 -13  13  -3   -0.22    4.84
  13 -13  -3    4.51    5.72
  14  13   0   -0.12    3.45
 -14  13   0   -0.66    8.12
  14  13   0   13.12    5.34
  14  13   0    5.43    3.91
 -14  13   0   -2.37    4.97
 -14 -13  -1   12.74    6.76
 -14 -13  -1   10.52    4.80
 -14  13   1  -15.87    8.05
  14  13  -1    3.83    4.28
  14  13  -1   12.33    4.95
 -14  13   1   -5.05    4.84
  14 -13  -1   -0.75    5.49
 -14  13  -1    1.26    5.10
  14  13   1    6.62    5.11
  14  13   1    4.39    3.40
 -14  13  -1   15.06    7.56
  14  13   1    5.58    3.83
  14 -13   2   -3.41    3.31
 -14 -13  -2    5.38    4.90
 -14 -13  -2    7.87    5.79
  14  13  -2    1.75    4.47
 -14  13   2   -0.15    4.93
  14  13  -2   13.50    5.47
 -14 -13  -2    4.45    5.58
  14  13   2    3.71    3.12
 -14  13  -2   22.00    7.06
 -14  13  -2   -1.62    4.85
  14 -13  -2    2.63    5.56
  14  13   2   16.95    6.27
  14  13   2    8.79    3.74
  15  13   0    6.34    3.72
 -15  13   0   -1.79    7.93
  15  13   0    9.17    4.12
  15  13   0   15.74    5.34
 -15  13   0   -2.66    5.03
  15  13  -1   20.21    5.36
 -15 -13  -1    7.19    5.03
 -15  13   1  -10.21    8.51
 -15  13   1   -0.09    5.25
  15  13  -1    4.86    4.29
 -15  13  -1   14.39    7.57
 -15  13  -1   -3.44    5.10
  15  13   1   16.55    5.49
  15  13   1    2.84    3.64
  15  13   1    6.52    4.09
   0  14   0   32.51    8.79
   0  14   1   40.81    8.58
   0 -14  -1   40.42    5.47
   0  14  -1   33.14    7.99
   0 -14  -1   38.88    5.03
   0  14   2   59.72    9.04
   0 -14  -2   69.63    6.28
   0 -14   2   68.63    5.63
   0 -14  -2   63.51    4.86
   0  14  -2   58.75    9.26
   0 -14  -2   72.67    5.61
   0  14   3   10.96    7.10
   0 -14  -3   27.45    4.93
   0 -14  -3   17.25    5.08
   0  14  -3   18.39    6.62
   0 -14   3   15.99    4.58
   0 -14   3   20.36    5.25
   0 -14  -3   16.11    3.97
   0 -14  -4   16.53    5.47
   0  14  -4   17.32    6.64
   0 -14  -4   19.56    5.31
   0 -14   4   16.44    5.10
   0  14  -4   13.69    4.83
   0  14   4    8.80    6.47
   0 -14   4   17.42    5.56
   0 -14  -4   12.73    4.09
   0 -14   4   12.12    4.67
   0 -14  -5   22.41    4.59
   0  14   5   10.56    6.91
   0 -14  -5   23.42    6.24
   0  14  -5   25.67    7.29
   0 -14   5   17.00    5.08
   0 -14  -5   28.20    6.19
   0 -14   5   11.35    5.39
   0 -14   5   19.55    5.81
   0  14  -5   17.80    5.74
   0 -14   6   -3.85    4.36
   0 -14   6   -1.70    5.47
   0  14   6    0.26    6.75
   0 -14   6    5.14    5.65
   0 -14  -6   17.81    6.37
   0 -14  -6   11.90    5.95
   0  14  -6   13.84    7.00
   0 -14  -6    5.61    4.00
  -1  14   0    7.52    8.23
   1 -14   0   10.89    4.00
   1  14   0    7.35    7.91
  -1  14   1    5.17    7.28
   1  14  -1    3.13    7.31
  -1 -14  -1   -0.32    4.10
   1 -14  -1    7.42    4.41
   1 -14  -1    5.77    3.69
   1  14   1    3.90    7.66
  -1  14  -1   -1.27    7.31
  -1 -14  -2    4.05    3.71
   1  14  -2    8.75    6.89
  -1  14   2    1.63    6.48
   1 -14   2    4.26    4.40
  -1 -14  -2    4.78    4.53
  -1 -14  -2    9.02    4.02
  -1  14  -2    5.05    6.82
   1  14   2   -0.26    6.78
   1 -14  -2   11.47    4.47
  -1 -14   2    6.19    4.06
   1 -14  -2    4.54    3.73
   1 -14  -2    6.36    4.61
  -1  14   3   -2.44    6.45
   1  14  -3    8.80    6.13
  -1 -14  -3    6.03    4.17
  -1 -14  -3    5.68    3.69
   1 -14   3    0.97    4.86
   1 -14   3    3.32    4.24
   1  14  -3    3.46    4.26
  -1 -14  -3    7.88    4.76
  -1 -14   3    2.09    4.04
   1 -14  -3    4.26    4.53
  -1 -14   3    3.47    4.77
   1  14   3    0.18    6.44
  -1  14  -3   12.05    6.37
   1 -14  -3    2.26    3.72
  -1 -14   3    4.35    3.91
   1 -14  -3    7.06    4.66
  -1 -14  -4    5.42    3.84
  -1 -14  -4    3.45    4.81
   1  14  -4    2.99    4.65
   1  14  -4   10.64    6.39
  -1 -14  -4    4.73    4.82
   1 -14   4    1.54    5.08
  -1  14   4    1.57    6.24
   1 -14   4   -1.53    4.46
  -1 -14   4   -4.47    4.80
   1  14   4   -1.75    6.17
  -1 -14   4   -1.05    4.15
   1 -14  -4    1.61    4.50
   1 -14  -4   -0.46    3.64
  -1  14  -4    9.21    6.26
   1 -14  -4    1.13    4.76
  -1 -14   4    3.71    4.61
  -1 -14  -5   11.02    5.49
  -1  14   5    1.63    6.58
   1  14  -5    3.37    5.14
   1 -14   5   -4.69    4.33
  -1 -14  -5    5.45    3.77
   1 -14   5   -0.74    5.23
   1 -14   5    2.47    4.95
   1  14  -5    8.84    6.61
  -1 -14  -5   12.00    5.58
  -1 -14   5   -1.60    5.08
   1  14   5   -0.29    6.46
   1 -14  -5    1.90    3.97
   1 -14  -5    4.05    5.33
   1 -14  -5    6.06    5.60
  -1  14  -5    7.17    6.12
  -1 -14   5    0.93    4.54
  -1 -14   5    3.56    5.11
  -1 -14  -6   12.66    4.13
  -1  14   6   -3.50    6.72
   1 -14   6    1.14    4.73
  -1 -14  -6   20.23    6.15
   1 -14   6   -8.82    5.35
   1  14  -6   17.01    7.22
  -1 -14  -6   13.17    5.82
   1 -14   6    0.50    5.53
  -1 -14   6   -7.70    4.37
  -1 -14   6    0.56    5.36
   1 -14  -6    5.27    4.19
   1 -14  -6    6.23    5.94
  -1  14  -6    8.79    6.60
   1  14   6   -5.00    5.65
   1 -14  -6    6.16    5.93
   1  14   6   -4.98    6.46
  -1 -14   6   -2.78    5.26
   2  14   0   45.50    8.81
  -2  14   0   43.41    9.15
   2 -14   0   46.72    5.21
   2  14  -1   33.57    8.21
  -2  14   1   32.28    8.21
  -2 -14  -1   32.98    4.99
   2  14  -1   42.25    5.55
  -2 -14   1   41.92    4.49
   2 -14  -1   42.67    5.04
   2 -14  -1   38.43    4.41
  -2  14  -1   27.14    8.33
   2 -14  -1   38.16    5.10
   2  14   1   42.76    8.74
   2 -14   2   27.48    4.98
   2  14  -2   31.12    4.99
  -2 -14  -2   33.52    5.15
  -2 -14  -2   29.73    4.28
   2  14  -2   28.87    7.39
  -2 -14  -2   33.96    4.67
  -2  14   2   25.03    7.61
  -2  14  -2   27.63    7.72
   2  14   2   24.27    7.53
   2 -14  -2   33.33    5.30
  -2 -14   2   29.21    4.63
   2 -14  -2   29.02    5.00
   2 -14  -2   25.57    4.15
  -2 -14  -3   25.30    5.36
  -2 -14  -3   29.29    4.24
  -2  14   3   12.51    7.05
   2 -14   3   15.54    4.80
   2 -14   3   19.76    5.33
   2  14  -3   22.19    6.61
  -2 -14  -3   19.12    4.59
   2  14  -3   21.38    4.84
  -2 -14   3   19.39    5.13
   2  14   3   12.78    6.86
   2  14   3   19.99    5.20
  -2 -14   3   18.38    4.48
   2 -14  -3   21.89    5.05
  -2  14  -3   22.69    6.75
   2 -14  -3   17.20    4.02
   2 -14  -3   19.45    4.92
   2 -14   4   13.04    5.04
  -2 -14  -4   23.98    5.59
   2 -14   4    7.37    5.43
  -2 -14  -4   25.93    4.27
   2  14  -4   13.69    4.97
   2  14  -4   24.16    6.70
  -2  14   4   14.01    6.91
  -2 -14  -4   25.34    5.47
   2 -14  -4    9.00    3.84
   2  14   4    6.00    6.43
  -2  14  -4   21.76    6.90
  -2 -14   4    9.72    5.11
   2 -14  -4   22.32    5.30
   2 -14  -4   28.45    5.63
   2  14   4   13.98    5.30
  -2 -14   4   22.75    5.26
  -2 -14   4   11.47    4.36
  -2 -14  -5   18.33    4.21
   2 -14   5    2.58    4.80
   2 -14   5    3.30    6.16
  -2  14   5    5.42    6.99
  -2 -14  -5   18.96    5.88
   2  14  -5   18.50    6.95
  -2 -14  -5   24.01    5.88
   2  14  -5   16.79    5.57
   2 -14  -5   18.67    4.46
  -2 -14   5   10.94    5.56
   2 -14  -5   11.06    5.60
  -2 -14   5    5.89    5.32
   2 -14  -5   20.01    5.73
  -2  14  -5   16.09    6.77
   2  14   5    7.77    5.71
   2  14   5    1.90    6.50
  -2 -14   5   11.57    4.52
   2 -14   6   -2.50    6.29
   2  14  -6    3.78    5.91
  -2 -14  -6   23.15    6.14
  -2 -14  -6   20.65    6.08
  -2 -14  -6   11.09    4.18
   2  14  -6   17.94    7.07
   2 -14   6    1.06    5.73
   2 -14   6   -1.12    4.76
  -2  14   6    2.20    7.28
  -2 -14   6    7.43    5.86
  -2 -14   6   -0.22    4.46
   2  14   6    5.50    6.15
  -2  14  -6   19.58    7.08
   2  14   6   -3.22    6.48
   2 -14  -6    8.35    4.31
   2 -14  -6    3.21    5.81
   2 -14  -6   11.01    5.92
  -2 -14   6    2.80    5.44
   3 -14   0    3.15    4.03
   3  14   0    3.83    4.10
  -3  14   0    2.62    7.88
   3  14   0   -2.35    7.11
   3  14  -1    5.64    4.34
  -3  14   1    6.24    7.26
   3  14  -1    4.53    7.04
  -3 -14  -1    2.97    4.21
   3 -14  -1    3.43    4.26
  -3  14  -1    6.02    7.53
  -3 -14   1    3.19    3.68
   3 -14  -1    4.96    3.54
   3  14   1    6.96    4.24
   3  14   1    1.86    7.55
  -3 -14  -2    5.93    3.84
  -3 -14  -2    5.17    3.76
  -3 -14  -2    2.61    4.34
  -3  14   2    1.65    6.43
   3  14  -2    8.18    6.12
   3  14  -2   -0.82    4.12
   3 -14   2   -3.85    4.15
  -3 -14   2   -1.09    3.69
   3  14   2   -5.05    6.32
   3 -14  -2    3.20    4.35
   3 -14  -2    5.09    4.28
   3 -14  -2   -1.57    3.41
   3  14   2    5.73    4.64
  -3 -14   2    2.94    4.19
  -3  14  -2   -1.97    6.37
   3 -14   3   -2.77    4.43
   3  14  -3   10.46    6.30
  -3  14   3   -4.81    6.36
  -3 -14  -3   12.39    3.93
  -3 -14  -3    5.92    4.22
   3  14  -3    8.68    4.49
   3 -14   3   -1.06    5.18
  -3 -14  -3    6.54    4.66
  -3 -14   3    1.01    4.42
  -3 -14   3    2.23    3.92
   3 -14  -3    6.64    3.60
   3 -14  -3    4.24    4.34
   3  14   3   -2.48    6.47
   3  14   3    7.48    5.10
  -3  14  -3    7.87    5.90
   3 -14  -3    2.00    4.46
  -3 -14  -4   18.36    5.17
  -3 -14  -4    9.83    5.12
  -3 -14  -4    9.65    3.98
   3 -14   4   -2.89    4.57
  -3  14   4   -1.18    6.16
   3  14  -4   10.59    6.15
   3  14  -4   10.85    4.84
  -3 -14   4    9.82    4.94
   3 -14  -4    9.69    5.02
   3 -14  -4    6.63    3.77
   3 -14  -4    9.32    5.16
  -3 -14   4   -6.36    4.55
  -3  14  -4   12.61    6.36
  -3 -14   4   -1.98    3.98
   3  14   4   -6.03    5.98
   3  14   4   -0.64    5.22
  -3  14   5   -4.26    6.46
   3 -14   5   -4.45    4.70
  -3 -14  -5   17.33    5.55
  -3 -14  -5   16.75    5.83
  -3 -14  -5    8.60    4.04
   3  14  -5    5.10    5.18
   3 -14   5  -11.18    5.71
   3  14  -5   10.76    6.54
  -3 -14   5   -0.97    4.89
   3  14   5    2.75    5.74
   3 -14  -5   16.24    5.69
   3  14   5   -0.23    6.30
  -3 -14   5    2.04    4.16
  -3  14  -5   12.27    6.36
  -3 -14   5    6.20    5.39
   3 -14  -5    5.02    3.90
   3 -14  -5   10.89    5.56
   3  14  -6    2.60    5.53
  -3  14   6    4.63    7.29
  -3 -14  -6   12.09    4.30
   3 -14   6   -6.93    5.95
  -3 -14  -6   20.89    5.97
   3 -14   6   -3.03    4.94
  -3 -14  -6   18.33    6.32
   3  14  -6   14.44    6.86
  -3  14  -6   20.58    7.12
  -3 -14   6   -1.25    4.18
   3 -14  -6    5.09    4.02
   3  14   6   -0.88    6.06
   3 -14  -6    6.65    5.83
   3 -14  -6    3.92    5.76
   3  14   6   -5.80    6.50
  -3 -14   6   10.88    5.97
  -3 -14   6    0.07    5.27
   4  14   0   15.86    7.53
   4 -14   0   23.68    4.67
  -4  14   0   15.49    8.33
   4  14   0   20.86    4.82
   4  14  -1   28.79    7.54
   4  14  -1   23.53    4.90
   4 -14   1   23.76    4.19
  -4  14   1   13.57    7.44
  -4 -14  -1   28.91    4.75
   4 -14  -1   27.96    4.93
   4  14   1   21.82    4.93
   4  14   1   15.35    7.72
   4 -14  -1   22.75    3.99
  -4  14  -1   23.46    7.96
  -4 -14   1   25.62    4.09
   4 -14   2    1.42    3.92
  -4  14   2    6.13    6.61
   4  14  -2   13.21    4.35
  -4 -14  -2    8.99    4.60
   4  14  -2   12.29    6.21
  -4 -14  -2   10.62    4.10
  -4 -14  -2   11.78    3.90
   4  14   2    2.12    6.58
   4 -14  -2    7.05    4.57
  -4  14  -2    8.36    6.70
   4 -14  -2    9.93    3.64
   4  14   2    7.71    4.87
  -4 -14   2    0.81    4.17
   4 -14  -2    9.37    4.46
  -4 -14   2    8.45    3.77
   4 -14   3    6.98    5.24
   4 -14   3    6.11    4.34
   4  14  -3   19.07    6.27
  -4 -14  -3   14.30    5.23
  -4 -14  -3   19.97    4.23
  -4 -14  -3   18.84    4.73
  -4  14   3   10.33    7.16
   4  14  -3   17.33    4.89
   4  14   3   11.43    5.43
   4 -14  -3   10.76    4.56
  -4 -14   3    9.26    4.01
  -4 -14   3    9.31    4.49
   4 -14  -3   13.95    4.85
   4  14   3    6.75    6.67
   4 -14  -3   12.08    3.69
  -4  14  -3    7.26    5.92
  -4 -14  -4   25.48    5.77
   4 -14   4    3.76    4.59
   4 -14   4    4.29    6.14
  -4  14   4    7.40    6.67
   4  14  -4   15.58    5.20
  -4 -14  -4   22.41    5.84
   4  14  -4   20.75    6.66
  -4 -14  -4   19.85    4.44
  -4 -14   4    8.19    4.75
  -4  14  -4   15.10    6.56
   4 -14  -4   15.82    5.23
  -4 -14   4    1.30    3.96
   4  14   4   17.83    5.92
   4 -14  -4   12.28    3.94
  -4 -14   4   16.49    5.28
   4  14   4    2.24    6.15
   4 -14  -4    8.20    5.24
  -4 -14  -5   16.65    6.10
  -4 -14  -5   26.09    6.15
  -4 -14  -5    9.60    4.46
   4  14  -5   16.10    6.95
   4  14  -5    0.22    5.06
  -4  14   5    2.05    6.88
   4 -14   5   -6.40    5.71
   4 -14   5   -2.44    4.60
   4 -14  -5    8.61    5.59
   4  14   5   -5.85    6.40
   4  14   5    2.97    5.94
  -4 -14   5    7.48    5.37
  -4 -14   5   -2.44    4.79
   4 -14  -5    4.89    5.54
  -4  14  -5   16.20    6.51
   4 -14  -5    5.84    3.98
  -4 -14   5   -2.81    3.99
  -4 -14  -6   19.31    6.22
   4 -14   6   -1.02    4.68
  -4 -14  -6   27.68    6.84
   4  14  -6   11.76    5.77
  -4 -14  -6   16.42    4.75
   4  14  -6   18.37    7.09
  -4  14   6   -0.94    6.86
   4  14   6    2.26    6.35
  -4 -14   6    3.89    5.18
   4 -14  -6    4.08    4.00
  -4 -14   6    3.80    4.15
   4  14   6   -5.07    6.50
  -4  14  -6   12.10    6.55
  -4 -14   6    6.24    5.96
   4 -14  -6    7.41    5.85
   4 -14  -6   -0.79    5.84
  -5  14   0   -3.89    7.59
   5  14   0    0.78    6.40
   5 -14   0    0.64    4.08
  -5  14   0    2.65    3.74
   5  14   0    5.69    4.21
  -5 -14  -1    7.23    4.26
   5 -14   1    0.31    3.81
   5  14  -1    7.03    6.05
  -5  14   1   -0.09    6.93
   5  14  -1    4.17    4.15
  -5  14  -1    1.67    3.50
   5  14   1   -2.18    6.80
  -5 -14   1    8.72    3.89
   5 -14  -1    1.71    3.49
   5 -14  -1   -0.26    4.23
   5  14   1    4.48    4.51
  -5 -14   1    4.04    3.42
  -5  14  -1    3.05    7.08
  -5 -14  -2    8.85    4.04
  -5 -14  -2    8.02    3.72
  -5 -14  -2   10.36    4.75
   5  14  -2   10.28    5.78
   5  14  -2    4.55    4.21
  -5  14   2   -0.60    6.42
   5 -14   2   -3.41    3.74
  -5  14  -2    6.63    6.71
  -5 -14   2    8.63    3.69
   5  14   2   -3.25    6.72
   5  14   2    5.37    4.95
   5 -14  -2    2.82    3.34
  -5 -14   2   -1.18    4.05
   5 -14  -2    6.35    4.43
  -5 -14  -3   11.45    4.08
   5  14  -3   15.41    6.04
   5  14  -3   10.63    4.85
  -5  14   3    6.61    7.09
   5 -14   3    6.21    5.34
  -5 -14  -3   16.87    5.14
  -5 -14  -3   11.98    4.57
   5 -14   3    6.84    4.47
   5  14   3    6.63    5.42
   5  14   3   -0.59    6.33
  -5  14  -3   13.01    6.09
   5 -14  -3    7.39    3.54
   5 -14  -3   11.96    4.69
  -5 -14   3    2.87    4.31
   5 -14  -3    7.11    4.61
  -5 -14   3    7.70    3.86
  -5 -14  -4    9.11    4.15
   5 -14   4    0.60    6.14
   5  14  -4    9.28    5.19
   5  14  -4   11.06    5.98
   5 -14   4    3.07    4.62
  -5 -14  -4   11.47    5.28
  -5 -14  -4   11.02    5.40
  -5  14   4    1.53    6.53
  -5 -14   4    1.18    4.09
  -5 -14   4    6.81    4.64
   5 -14  -4    9.67    5.08
   5 -14  -4    3.93    4.88
  -5  14  -4   17.91    7.02
   5 -14  -4    6.25    3.65
   5  14   4   -7.92    6.04
   5  14   4    2.57    5.87
   5  14  -5    9.87    5.48
  -5 -14  -5   20.40    6.15
  -5 -14  -5   16.14    4.69
   5  14  -5   11.17    6.65
   5 -14   5   -3.51    6.28
  -5 -14  -5   18.89    6.40
  -5  14   5   -1.94    6.68
   5 -14   5   -1.43    4.65
   5 -14  -5    8.26    5.54
  -5 -14   5    6.99    5.31
  -5  14  -5   17.58    6.80
   5  14   5    6.91    6.17
   5  14   5   -2.59    6.21
   5 -14  -5    8.43    5.50
  -5 -14   5    1.15    3.98
   5 -14  -5    7.77    3.81
  -5 -14   5    3.68    4.78
   5 -14   6   -0.70    5.00
  -5 -14  -6   10.13    4.80
   5 -14   6   -9.87    6.45
  -5  14   6    0.52    7.42
   5  14  -6   10.56    5.82
  -5 -14  -6   26.30    6.95
  -5 -14  -6   23.13    6.50
   5  14  -6   10.31    6.83
   5 -14  -6    8.35    4.11
   5 -14  -6   11.94    6.02
   5 -14  -6    9.11    6.25
  -5 -14   6    1.73    5.06
  -5  14  -6   13.30    6.72
  -5 -14   6    1.73    5.78
  -5 -14   6    3.74    4.29
   5  14   6   -9.69    6.03
   5  14   6    2.87    6.78
   6  14   0    4.69    6.09
  -6  14   0   -0.55    3.68
  -6  14   0   -0.37    7.41
   6  14   0    8.20    4.27
   6 -14   0    2.67    4.18
   6  14  -1   14.57    5.79
  -6 -14  -1   10.04    4.21
   6 -14   1    5.95    4.09
   6  14  -1    4.73    3.57
   6  14  -1    9.63    4.32
  -6  14   1    2.03    6.64
   6  14   1    9.38    6.71
  -6  14  -1    8.73    3.74
   6  14   1    9.30    4.74
   6 -14  -1    2.49    4.39
  -6 -14   1    9.43    3.83
  -6  14  -1    4.00    7.17
  -6  14   2   -2.07    6.41
  -6 -14  -2    8.20    4.52
  -6 -14  -2    8.29    3.91
   6  14  -2    9.89    5.54
   6  14  -2    8.60    4.57
   6 -14   2   -3.11    3.75
  -6 -14  -2    5.15    3.99
  -6 -14   2    3.00    3.55
   6 -14  -2    3.83    4.29
  -6 -14   2    8.17    4.24
   6  14   2    1.06    4.84
   6  14   2   -8.21    6.48
   6 -14  -2    3.83    3.68
  -6  14  -2   10.93    6.89
  -6  14   3   -0.73    6.74
   6 -14   3   -4.25    5.18
   6  14  -3   16.82    5.90
   6 -14   3   -1.10    4.01
  -6 -14  -3   11.50    4.69
   6  14  -3   10.32    4.81
  -6 -14  -3   11.43    4.13
  -6 -14  -3   15.08    5.03
   6 -14  -3    7.19    3.63
  -6 -14   3    5.60    3.90
   6 -14  -3    5.13    4.70
   6  14   3    4.43    5.43
  -6  14  -3    6.35    5.93
  -6 -14   3   -2.07    4.20
  -6  14   4   -4.45    6.18
  -6 -14  -4    7.83    4.31
   6 -14   4   -1.54    4.52
   6  14  -4   11.73    5.95
  -6 -14  -4   10.55    5.36
  -6 -14  -4    8.36    5.52
   6  14  -4   12.22    5.25
   6 -14   4  -10.49    5.68
   6 -14  -4    3.54    4.95
  -6 -14   4    2.61    3.86
  -6  14  -4   13.18    6.54
   6 -14  -4    3.98    3.83
   6  14   4    8.75    6.24
  -6 -14   4   -3.86    4.35
  -6 -14  -5    5.22    4.32
   6 -14   5    2.94    4.87
   6 -14   5  -10.58    6.21
  -6 -14  -5    5.85    5.68
  -6 -14  -5    8.01    6.13
   6  14  -5   10.61    6.01
   6  14  -5    8.60    5.40
  -6  14   5    0.42    6.86
  -6 -14   5   -2.37    3.87
   6 -14  -5    8.10    5.35
   6 -14  -5    2.89    3.82
  -6  14  -5   13.32    6.63
  -6 -14   5    2.21    5.12
  -6 -14   5    3.52    4.54
   6  14   5    7.75    6.31
   6 -14  -5    3.69    5.34
   6 -14   6   -7.92    4.51
   6  14  -6   15.94    6.82
   6 -14   6   -8.67    6.46
  -6  14   6   -6.26    6.96
  -6 -14  -6   13.16    4.87
  -6 -14  -6   17.42    6.36
   6  14  -6    1.26    5.97
  -6 -14  -6   19.61    6.69
  -6 -14   6   -3.91    3.94
  -6 -14   6   -2.10    4.74
   6 -14  -6    5.47    4.37
   6 -14  -6    2.83    5.86
  -6  14  -6   11.18    6.53
   6 -14  -6    1.27    5.64
  -6 -14   6   -0.03    5.68
   6  14   6    3.31    6.93
   7  14   0    6.97    4.25
   7 -14   0    2.79    4.16
  -7  14   0   -0.63    7.45
  -7  14   0    0.50    3.83
   7  14  -1   14.38    5.24
   7 -14   1    0.25    4.05
  -7  14   1    2.53    7.01
   7  14  -1    6.57    4.25
   7  14  -1   -0.19    3.49
  -7  14   1   -1.54    3.95
  -7 -14  -1    5.04    4.10
  -7  14  -1    3.63    7.25
   7  14   1   11.88    4.88
  -7 -14   1    6.56    4.02
   7 -14  -1   -0.62    4.32
  -7  14  -1    1.21    3.58
  -7 -14  -2   14.44    4.71
   7 -14   2    1.67    3.73
  -7 -14  -2   11.56    3.98
  -7 -14  -2    7.17    4.15
  -7  14   2    2.19    6.80
   7  14  -2   13.78    5.45
   7  14  -2   10.50    4.63
   7 -14  -2    6.21    4.66
  -7  14  -2   17.38    7.12
   7  14   2   13.84    5.38
  -7 -14   2    7.59    4.05
   7 -14  -2    5.54    3.77
  -7 -14   2    6.23    3.45
   7  14  -3    9.05    5.17
   7 -14   3    6.09    4.42
  -7 -14  -3   14.09    4.19
  -7 -14  -3   16.81    5.01
   7  14  -3   18.84    5.81
  -7 -14  -3   20.02    5.44
  -7  14   3   -3.46    6.89
   7 -14  -3    8.71    4.88
   7 -14  -3    5.76    3.77
  -7 -14   3   13.65    4.01
  -7 -14   3    7.65    4.48
  -7  14  -3   12.69    6.42
   7  14   3   13.29    5.88
  -7  14   4    2.26    6.69
  -7 -14  -4   20.39    5.92
   7 -14   4   -7.68    5.61
   7  14  -4   18.81    6.39
  -7 -14  -4   15.99    5.92
   7 -14   4    3.10    4.67
   7  14  -4   11.33    5.39
  -7 -14  -4    7.82    4.34
   7 -14  -4   -0.19    4.83
  -7 -14   4    7.38    4.22
  -7 -14   4    2.38    4.41
  -7  14  -4   21.57    7.15
   7  14   4    8.14    6.29
   7 -14  -4    6.81    3.99
  -7 -14  -5   12.36    5.71
   7  14  -5    5.20    5.33
   7 -14   5    2.19    4.69
  -7 -14  -5    9.64    6.31
  -7 -14  -5    4.81    4.38
   7 -14   5   -4.17    6.26
   7  14  -5   16.67    6.35
  -7  14   5   -8.98    6.41
   7  14   5   14.46    6.60
  -7 -14   5    3.90    5.24
  -7  14  -5   16.65    6.39
   7 -14  -5    5.92    3.95
  -7 -14   5    5.29    4.00
   7 -14  -5    7.34    5.34
  -7 -14   5    4.20    4.47
  -8  14   0    0.46    3.97
   8 -14   0    3.04    4.49
  -8  14   0    1.98    7.82
   8  14   0    9.45    4.47
   8  14   0    2.51    3.23
   8  14  -1    9.92    4.56
  -8  14   1   -7.73    6.90
  -8 -14  -1    7.02    3.82
  -8  14   1    5.35    4.27
   8  14  -1    2.58    3.59
   8 -14   1   -3.12    4.13
  -8  14  -1    2.86    4.03
   8 -14  -1    1.78    4.59
   8  14   1   12.00    5.03
  -8  14  -1    4.97    7.36
  -8 -14  -2    5.56    4.91
  -8  14   2    7.50    4.47
  -8 -14  -2    9.08    4.50
  -8  14   2   -5.20    6.73
   8  14  -2   -1.29    3.74
   8  14  -2    3.91    4.61
  -8 -14  -2    9.10    4.01
   8 -14   2   -3.37    3.53
  -8  14  -2   13.81    7.43
  -8 -14   2    6.16    4.06
  -8  14  -2    1.37    4.09
   8  14   2   11.36    5.62
   8 -14  -2    5.33    4.90
   8 -14   3   -1.90    4.02
   8  14  -3    9.74    5.06
   8  14  -3   14.59    5.60
  -8 -14  -3    4.93    4.82
  -8  14   3  -13.26    6.64
  -8 -14  -3    2.75    5.08
  -8 -14  -3    5.75    4.02
   8 -14  -3   -4.81    4.72
   8 -14  -3    4.95    3.98
  -8 -14   3   -1.09    4.07
  -8 -14   3   -2.33    3.44
   8  14   3    1.91    5.75
  -8  14  -3   11.32    6.67
   8  14  -4    6.84    5.91
  -8 -14  -4    3.87    4.25
  -8 -14  -4    8.96    5.76
   8 -14   4   -5.66    4.23
  -8 -14  -4   11.65    5.89
  -8  14   4   -9.62    6.42
   8  14  -4    2.99    4.82
   8 -14   4  -13.40    5.54
  -8 -14   4    0.57    3.75
   8 -14  -4   -3.04    3.69
   8  14   4    1.69    6.35
   8 -14  -4    5.95    5.14
  -8  14  -4   14.25    6.62
  -8 -14   4    0.81    4.16
   8 -14   5   -3.05    4.45
   8 -14   5   -4.72    6.10
   8  14  -5   10.70    5.67
  -8 -14  -5   13.14    4.74
  -8 -14  -5   10.49    5.72
  -8 -14  -5    7.13    6.41
  -8  14   5   -4.58    7.00
   8  14  -5   14.04    6.44
   8  14   5    4.95    6.61
   8 -14  -5    0.18    5.10
   8 -14  -5    2.28    4.21
  -8 -14   5   -3.48    4.17
  -8  14  -5   15.69    6.36
  -8 -14   5    3.53    5.28
  -8 -14   5   -1.13    3.72
   9  14   0   11.06    4.71
   9  14   0    8.40    3.48
   9 -14   0    0.86    4.82
  -9  14   0   -0.97    7.79
  -9  14   0    3.29    3.99
   9 -14   1   -0.83    4.61
  -9  14   1    3.09    4.23
   9  14  -1   -2.66    3.56
   9  14  -1    8.08    4.72
  -9 -14  -1    4.45    3.89
  -9  14   1   -3.98    7.48
  -9 -14  -1   15.17    4.85
  -9  14  -1    0.89    4.15
   9 -14  -1   -0.31    4.73
   9  14   1    9.21    3.42
   9  14   1    7.50    5.06
  -9  14  -1    7.27    7.72
  -9 -14  -2   14.89    5.21
  -9 -14  -2   11.83    4.38
   9  14  -2    4.49    4.85
  -9 -14  -2   10.22    4.70
   9  14  -2   -0.45    3.98
  -9  14   2   -7.61    6.96
   9 -14   2    2.06    3.59
  -9  14   2    5.83    4.53
  -9 -14   2    8.90    4.34
  -9  14  -2   -3.50    4.02
   9  14   2    6.57    5.51
   9 -14  -2   -4.64    4.71
  -9  14  -2    8.71    7.37
  -9  14   3   -4.06    7.09
   9 -14   3    0.55    4.01
   9  14  -3    4.65    5.20
  -9 -14  -3   10.85    4.61
  -9 -14  -3   12.75    5.68
  -9 -14  -3   13.51    5.70
  -9 -14   3    6.68    4.49
  -9  14  -3    0.77    4.22
  -9  14  -3   17.10    6.93
   9  14   3    9.69    5.99
   9 -14  -3    5.48    5.23
  -9 -14   3    9.60    3.74
   9 -14   4   -0.04    5.66
  -9 -14  -4   10.29    4.54
  -9  14   4   -4.40    7.02
   9  14  -4    9.71    5.11
  -9 -14  -4   22.36    6.13
   9 -14   4    3.51    4.51
  -9 -14  -4   15.37    6.29
   9 -14  -4    5.38    4.24
   9  14   4    8.08    6.51
  -9  14  -4   23.68    7.36
  -9 -14   4    0.85    4.19
   9 -14  -4   -3.91    5.14
  -9 -14   4    0.52    3.60
  -9 -14  -5   18.55    6.74
   9 -14   5    4.07    4.81
   9 -14   5    2.66    6.34
  -9 -14  -5    7.77    6.77
  -9  14   5   -1.57    7.48
   9  14  -5    8.50    5.59
  -9 -14  -5   11.03    4.46
   9 -14  -5    5.04    4.30
   9 -14  -5    6.58    5.70
   9  14   5    3.94    6.93
  -9 -14   5    5.64    4.08
  -9 -14   5    1.33    4.67
  10  14   0    7.07    3.62
 -10  14   0    1.72    8.10
  10 -14   0    0.83    4.97
  10  14   0    7.64    4.78
 -10  14   0    4.48    4.46
  10  14  -1    9.01    4.13
 -10  14   1   -4.20    7.86
  10  14  -1   10.91    4.89
 -10 -14  -1   11.18    4.33
 -10  14   1   -1.13    4.30
 -10 -14  -1   14.46    4.89
  10  14   1    8.76    3.46
  10 -14  -1    0.50    4.88
 -10  14  -1    3.85    7.72
 -10  14  -1    2.30    4.51
  10  14   1    4.38    5.18
  10 -14   2    3.76    3.49
  10  14  -2    9.26    4.95
 -10 -14  -2   16.40    4.99
 -10  14   2   -1.67    7.46
 -10 -14  -2   12.02    4.60
  10  14  -2   10.32    4.48
 -10  14   2    4.79    4.56
 -10 -14  -2   11.24    5.30
 -10 -14   2    9.90    4.48
 -10  14  -2    1.44    4.37
  10  14   2    8.94    5.80
  10 -14  -2    6.35    5.07
 -10  14  -2   13.11    7.67
  10 -14   3    1.88    4.04
 -10 -14  -3   16.64    5.64
 -10  14   3  -13.31    7.07
 -10 -14  -3   12.40    5.41
  10  14  -3    2.60    4.31
 -10  14   3    0.44    4.73
 -10 -14  -3    6.42    4.49
  10  14  -3    6.89    5.13
  10 -14  -3   -0.59    4.92
  10  14   3    2.68    5.71
 -10  14  -3   16.49    6.83
 -10 -14   3    3.03    4.26
 -10  14  -3   -0.98    4.33
  10 -14   4    2.01    4.29
 -10 -14  -4   17.50    6.23
  10  14  -4   10.93    5.15
 -10 -14  -4    8.72    6.17
  10 -14   4    5.61    5.56
 -10 -14  -4    7.89    4.70
 -10 -14   4    8.46    3.74
 -10 -14   4    2.13    4.44
 -10  14  -4   18.01    7.09
  10  14   4   12.62    6.58
  10 -14  -4    6.75    5.56
  11  14   0    4.48    3.56
 -11  14   0   -0.13    8.24
 -11  14   0   -0.86    4.45
 -11 -14   0    9.59    4.40
  11  14   0    7.31    4.83
  11 -14   0   -0.30    5.05
 -11  14   1   -2.80    4.40
 -11 -14  -1    6.03    4.06
 -11 -14  -1    8.27    4.80
 -11  14   1   -7.71    8.37
 -11 -14  -1   13.44    5.09
  11  14  -1    0.82    3.82
  11  14  -1   10.22    4.78
  11  14   1    8.67    3.54
 -11  14  -1   -0.75    4.56
  11  14   1    8.53    5.19
  11 -14  -1    1.59    5.27
 -11  14  -1    4.55    7.64
  11  14  -2    2.82    4.32
  11 -14   2    0.32    3.45
 -11 -14  -2    9.25    5.43
 -11 -14  -2    6.61    4.77
 -11  14   2    6.04    4.85
  11  14  -2   10.77    5.09
 -11  14   2  -13.09    7.37
 -11 -14  -2    5.96    4.38
  11  14   2    6.14    4.27
 -11  14  -2   13.90    7.76
  11  14   2    4.62    5.59
  11 -14  -2   -4.83    4.98
  11  14   2    6.32    3.23
 -11  14  -2    0.86    4.55
  11 -14   3    8.39    4.14
 -11 -14  -3    0.59    4.25
 -11 -14  -3   11.50    5.63
  11  14  -3    3.47    4.98
  11  14  -3   -3.17    4.45
 -11  14   3  -11.49    7.32
 -11  14   3    0.33    4.77
 -11 -14  -3   13.99    5.88
 -11 -14   3    2.84    4.23
  11 -14  -3   -3.55    5.06
  11  14   3    3.18    5.83
 -11  14  -3   14.39    6.72
 -11  14  -3    2.61    4.49
 -11 -14  -4    8.21    4.72
 -11  14   4    3.51    5.15
 -11 -14  -4   17.64    6.44
 -11 -14  -4   18.93    7.02
  11 -14   4    4.99    5.74
  11 -14   4    1.38    4.32
 -11  14   4   -7.44    7.85
  11  14  -4   15.36    5.85
  11  14   4   13.70    6.65
 -11  14  -4   16.60    6.77
  11 -14  -4    0.50    5.55
 -11 -14   4    0.33    4.30
 -11 -14   4    6.08    3.63
  12  14   0   14.21    5.16
 -12  14   0    4.10    4.90
  12  14   0    5.72    3.71
 -12  14   0   -4.33    8.13
  12  14  -1   18.38    4.40
 -12 -14  -1   18.16    4.68
 -12  14   1   12.71    5.03
 -12  14   1    0.05    8.80
 -12 -14  -1   16.54    7.02
  12  14  -1   14.85    5.03
  12  14   1   19.69    5.40
  12 -14  -1    1.17    5.33
 -12  14  -1    5.62    5.02
  12  14   1   10.58    3.82
 -12  14  -1   14.63    8.09
  12  14   1    8.17    3.39
 -12  14   2   -7.93    8.24
 -12 -14  -2   15.36    5.71
 -12 -14  -2   18.23    4.79
  12  14  -2    3.49    4.41
  12 -14   2    1.86    3.88
  12  14  -2    8.46    4.96
 -12  14   2    8.24    4.85
 -12 -14  -2   14.04    5.43
 -12  14  -2   20.35    7.60
  12  14   2   22.45    6.17
  12 -14  -2   -3.31    5.19
 -12  14  -2    0.50    4.73
  12  14   2   13.82    3.69
  12  14   2    9.80    3.96
 -12  14   3    7.30    5.16
  12  14  -3    8.82    5.00
  12  14  -3   12.87    5.54
 -12 -14  -3   16.64    5.02
 -12 -14  -3    9.52    6.00
  12 -14   3    4.81    4.03
 -12  14   3   -9.69    7.79
 -12 -14  -3   16.90    6.31
 -12  14  -3    0.07    4.92
 -12  14  -3   22.46    7.10
 -12 -14   3    8.74    4.50
  12 -14  -3   -0.90    5.47
  12  14   3   11.79    6.26
 -13  14   0   -0.05    8.07
  13  14   0    8.89    3.98
 -13  14   0   -2.22    4.90
  13  14   0   11.22    5.27
 -13  14   1  -12.99    8.44
  13  14  -1   14.94    4.97
  13  14  -1    0.72    3.97
 -13 -14  -1    2.97    4.51
 -13  14   1   -2.33    4.85
 -13  14  -1   -3.72    4.58
  13  14   1    5.84    3.76
  13  14   1    0.86    3.29
 -13  14  -1   12.49    7.79
  13 -14  -1   -2.09    5.55
  13  14   1   14.41    5.16
  13  14  -2    7.41    4.77
  13  14  -2   17.55    5.38
 -13  14   2    2.19    4.88
 -13 -14  -2   10.75    5.58
 -13 -14  -2    7.15    4.88
 -13  14   2  -14.15    8.36
 -13 -14  -2    4.77    5.19
 -13  14  -2   22.32    7.61
 -13  14  -2   -1.62    4.58
  13 -14  -2   -4.99    5.41
  13  14   2    6.16    3.54
  13  14   2   13.37    3.71
  13  14   2    9.94    5.78
 -14  14   0    6.02    5.53
 -14  14   0   -3.92    8.08
  14  14   0   18.03    4.55
  14  14   0   16.46    5.47
 -14  14   1   -6.87    8.98
  14  14  -1   14.05    4.57
 -14  14   1    5.79    5.47
  14  14  -1   27.17    5.74
 -14 -14  -1    9.76    5.10
  14 -14  -1    1.87    5.98
  14  14   1    8.65    3.81
 -14  14  -1    6.92    5.44
 -14  14  -1   18.97    8.16
  14  14   1   11.77    4.16
  14  14   1   26.50    5.77
   0  15   0   -2.59    7.52
   0 -15  -1   -2.24    3.84
   0 -15  -1   -0.93    4.00
   0  15  -1    0.59    6.87
   0  15   1   -1.77    7.53
   0 -15   2   -1.03    4.15
   0 -15  -2    8.45    4.46
   0  15   2    2.78    6.70
   0  15  -2    5.54    6.62
   0 -15  -2    8.67    4.37
   0 -15  -2    8.80    3.81
   0 -15  -3    2.12    4.67
   0  15   3   -6.55    6.83
   0 -15  -3    1.95    4.37
   0  15  -3    7.05    6.35
   0 -15   3   -5.46    4.32
   0 -15  -3   -0.14    3.60
   0 -15   3   -4.13    4.97
   0 -15  -4   -0.66    4.97
   0 -15  -4    0.67    5.10
   0 -15   4   -3.23    5.22
   0  15  -4   11.13    6.56
   0  15   4   -5.75    6.37
   0 -15   4   -3.27    4.46
   0 -15  -4    4.59    4.00
   0 -15   5   -1.68    4.98
   0 -15  -5   -4.10    5.31
   0  15  -5   16.29    6.73
   0 -15   5   -6.24    4.59
   0 -15  -5    0.33    5.86
   0 -15  -5   -0.60    3.96
   0  15   5   -7.00    6.57
   0 -15   5   -4.22    5.59
   0  15  -5   -2.34    5.02
   0 -15   6   -5.87    4.75
   0 -15  -6   13.45    6.24
   0 -15   6   -3.81    5.85
   0  15  -6   14.15    7.00
   0  15   6   -7.70    6.95
   0 -15   6   -1.44    5.60
   0 -15  -6   -0.06    6.29
   0 -15  -6   12.98    4.49
   1  15   0    3.47    7.49
  -1  15   0    6.01    7.94
  -1 -15  -1   -1.39    3.43
  -1 -15  -1    1.97    4.07
  -1  15   1   -0.18    7.40
   1  15  -1    3.65    6.96
  -1 -15  -1   -1.52    3.84
  -1  15  -1    4.45    7.01
   1 -15  -1    5.57    4.10
   1 -15  -1    2.61    3.99
   1  15   1   -4.25    7.44
   1  15  -2   13.87    6.86
  -1 -15  -2   12.17    4.39
  -1 -15  -2    2.48    3.74
  -1  15   2    3.10    6.86
  -1 -15  -2   12.42    3.66
   1 -15   2    0.24    4.30
   1  15   2    2.20    6.95
   1 -15  -2    7.81    4.45
  -1  15  -2    6.15    6.49
   1 -15  -2   10.70    3.80
  -1 -15   2    4.07    4.09
   1 -15  -2    6.01    4.33
  -1  15   3   -6.12    6.72
   1 -15   3    6.22    5.14
  -1 -15  -3    3.87    4.61
  -1 -15  -3    8.32    3.84
   1 -15   3    0.82    4.54
   1  15  -3    9.51    6.27
   1  15  -3    3.64    4.32
  -1 -15  -3    4.90    4.39
   1 -15  -3    8.67    3.98
   1 -15  -3   10.98    4.72
  -1  15  -3   12.66    6.77
  -1 -15   3    2.30    4.98
   1 -15  -3    6.72    4.85
  -1 -15   3    2.52    4.44
   1  15   3   -0.90    7.06
  -1 -15   3    5.63    4.21
  -1  15   4   -6.17    6.48
  -1 -15  -4    5.66    5.23
   1  15  -4   14.99    6.76
   1 -15   4    0.59    4.68
   1  15  -4   -0.59    4.72
  -1 -15  -4    7.66    5.18
   1 -15   4   -0.64    5.60
  -1 -15  -4    4.81    3.93
   1 -15  -4    1.08    3.93
   1  15   4   -1.73    6.50
  -1 -15   4   -0.84    4.55
  -1 -15   4    4.49    4.85
   1 -15  -4    8.48    5.22
  -1  15  -4   12.06    6.62
  -1 -15   4   -1.81    5.45
   1 -15  -4    5.82    5.07
   1  15  -5   11.61    6.62
  -1 -15  -5   16.46    5.64
  -1 -15  -5   13.89    5.80
   1 -15   5    0.51    5.75
  -1 -15  -5   14.18    4.48
   1 -15   5    2.19    5.06
   1  15  -5    7.24    5.26
  -1 -15   5    1.27    5.18
   1  15   5   -2.26    6.81
   1 -15  -5   11.56    5.79
  -1 -15   5    2.56    5.59
   1 -15  -5    9.44    4.53
  -1 -15   5   -0.59    4.58
   1 -15  -5    6.96    5.96
  -1 -15  -6   10.52    5.88
   1 -15   6   -2.55    5.08
  -1  15   6   -4.42    7.12
  -1 -15  -6   13.85    4.34
   1 -15   6   -2.19    6.47
   1  15  -6   16.23    7.10
   1 -15   6    6.89    7.60
  -1 -15  -6   14.38    6.22
   1 -15  -6   10.58    6.47
   1 -15  -6    6.98    4.50
  -1  15  -6   13.80    7.17
  -1 -15   6   -0.11    5.87
   1 -15  -6   11.75    6.46
  -1 -15   6   -1.58    4.79
  -1 -15   6    4.21    6.01
   1  15   6   -1.64    7.32
  -2  15   0    0.27    7.63
   2  15   0    0.19    7.17
   2 -15   0    5.18    3.84
  -2 -15  -1    5.04    4.06
  -2  15   1    6.04    7.60
   2  15  -1    8.30    6.85
   2  15   1    0.18    7.70
   2 -15  -1    4.00    4.08
  -2  15  -1    9.71    7.36
   2 -15  -1    6.90    4.03
   2 -15   2    0.62    4.30
  -2 -15  -2   11.36    3.68
  -2 -15  -2    5.58    3.89
   2  15  -2    6.74    4.08
   2  15  -2   14.01    6.60
  -2  15   2    1.39    6.77
  -2 -15  -2    9.06    4.35
   2  15   2   -0.53    6.96
   2 -15  -2    6.96    4.50
   2 -15  -2    9.15    3.76
  -2  15  -2    6.24    6.86
   2 -15  -2    4.57    4.36
  -2 -15   2    7.47    4.15
  -2 -15  -3    7.43    4.69
  -2 -15  -3    8.74    3.85
  -2  15   3   -3.20    7.07
   2  15  -3    3.64    4.32
   2  15  -3    7.36    6.37
  -2 -15  -3   11.22    4.50
   2 -15   3    3.28    4.70
   2 -15   3   -1.81    5.31
   2 -15  -3    8.82    3.92
   2 -15  -3    2.99    4.56
   2 -15  -3    6.83    4.90
  -2 -15   3   -1.56    4.17
  -2 -15   3    1.71    5.00
  -2  15  -3    9.45    6.42
   2  15   3   -5.88    6.64
  -2 -15  -4    9.99    5.26
  -2 -15  -4   13.39    3.97
   2 -15   4   -0.99    5.62
   2 -15   4    3.66    5.16
   2  15  -4    8.22    4.87
   2  15  -4   13.28    6.38
  -2  15   4    0.45    6.96
  -2 -15  -4    8.84    5.23
  -2 -15   4    3.78    5.27
   2 -15  -4    7.05    4.24
  -2 -15   4    5.74    4.77
  -2 -15   4    0.31    4.42
   2  15   4   -2.30    6.69
   2 -15  -4    1.23    5.00
  -2  15  -4   13.07    6.88
   2 -15  -4    7.06    5.26
  -2 -15  -5   13.64    5.82
   2  15  -5   10.48    6.64
  -2 -15  -5   12.51    4.32
   2 -15   5   -5.02    6.29
   2  15  -5    4.73    5.47
  -2  15   5   -6.17    6.84
  -2 -15  -5    8.25    5.34
   2 -15   5   -4.83    4.85
  -2 -15   5   -3.54    5.61
  -2 -15   5    1.58    5.22
   2 -15  -5    1.66    5.21
   2  15   5  -11.64    6.27
  -2 -15   5    1.61    4.70
  -2  15  -5    9.77    6.41
   2 -15  -5    8.89    5.66
   2 -15  -5    7.28    4.24
   2  15   5    2.70    5.58
   2  15  -6   12.75    7.03
   2 -15   6  -15.31    6.44
   2  15  -6   -0.04    5.97
  -2 -15  -6   13.51    6.15
  -2  15   6   -6.95    7.28
  -2 -15  -6   11.45    4.32
   2 -15   6   -5.75    5.09
  -2 -15  -6    9.24    5.61
  -2  15  -6   13.01    6.84
  -2 -15   6   -2.18    5.79
  -2 -15   6   -7.07    4.57
   2 -15  -6   -2.55    6.01
   2  15   6  -10.97    6.54
   2 -15  -6    3.95    4.34
   2 -15  -6   -5.01    5.72
  -2 -15   6    7.72    6.08
   3  15   0    4.44    7.06
   3 -15   0    1.37    3.84
  -3  15   0   -5.73    7.54
   3  15   0    8.09    3.91
  -3 -15  -1   10.06    4.07
  -3  15   1   -1.12    7.38
   3  15  -1    7.81    4.08
   3  15  -1    7.80    7.04
   3 -15  -1    4.51    4.12
   3  15   1    2.53    7.55
  -3 -15   1    1.15    3.59
  -3  15  -1   -0.06    7.23
   3  15   1   11.50    4.00
  -3 -15  -2   10.28    4.45
   3  15  -2   10.96    6.16
  -3 -15  -2    6.67    3.60
  -3  15   2   -1.18    6.58
   3  15  -2    4.11    4.40
  -3 -15  -2    7.37    3.87
   3  15   2    5.83    4.45
   3 -15  -2    1.17    3.53
  -3  15  -2    3.21    6.56
  -3 -15   2    1.45    3.85
   3  15   2   -6.33    6.98
   3 -15  -2   10.14    4.58
   3 -15  -2    0.46    4.39
   3  15  -3    3.60    4.32
  -3  15   3   -1.90    7.11
  -3 -15  -3    8.56    4.75
  -3 -15  -3   10.45    4.08
   3 -15   3   -9.52    5.27
   3  15  -3   10.62    6.35
  -3 -15  -3    9.22    4.45
   3 -15   3   -8.69    4.44
   3 -15  -3   -0.55    4.65
  -3  15  -3    3.49    5.86
   3  15   3   -8.69    6.53
  -3 -15   3   -0.68    4.90
   3 -15  -3    7.77    4.80
  -3 -15   3   -6.65    3.98
   3  15   3    4.06    4.91
   3 -15  -3   -2.10    3.65
  -3 -15  -4    9.87    4.09
  -3  15   4   -0.99    6.94
  -3 -15  -4    8.84    5.21
   3  15  -4    4.85    4.75
   3  15  -4    9.57    6.01
   3 -15   4   -4.41    4.99
   3 -15   4   -2.43    6.10
  -3 -15  -4   17.30    5.44
  -3 -15   4   -1.75    5.23
  -3  15  -4    9.15    6.67
  -3 -15   4    6.25    5.00
   3 -15  -4    1.49    5.05
   3 -15  -4    0.65    4.02
   3 -15  -4    6.00    5.16
   3  15   4    4.00    5.65
  -3 -15   4    2.04    4.43
   3  15   4  -11.66    6.52
   3 -15   5   -6.11    6.26
   3  15  -5    7.61    5.34
  -3 -15  -5   15.63    5.97
  -3  15   5   -7.56    6.76
  -3 -15  -5    9.83    4.09
  -3 -15  -5   11.12    5.60
   3  15  -5   10.45    6.42
   3 -15   5    0.00    5.11
   3 -15  -5    4.01    5.65
  -3 -15   5    7.83    4.76
   3  15   5   -3.28    6.78
   3 -15  -5   11.89    4.38
  -3 -15   5    2.71    5.31
  -3  15  -5   14.86    6.77
   3 -15  -5    8.55    5.57
   3  15   5    3.07    5.64
  -3 -15   5    7.62    5.54
   3  15  -6   13.18    6.75
  -3  15   6   -5.62    7.28
  -3  15  -6   16.17    7.10
   3  15   6  -10.22    6.85
   4  15   0   19.93    4.47
   4 -15   0   17.71    4.48
  -4  15   0   14.40    8.30
   4  15   0   15.61    7.19
  -4 -15  -1   37.08    5.06
   4  15  -1   21.15    6.99
   4  15  -1   25.02    4.83
  -4  15   1   14.46    7.84
   4  15   1   26.68    4.65
   4 -15  -1   25.06    3.93
   4 -15  -1   24.26    4.69
   4  15   1   22.73    7.97
  -4 -15   1   21.51    3.99
  -4  15  -1   17.45    7.86
  -4 -15  -2   26.65    4.36
   4 -15   2   14.15    4.30
   4  15  -2   24.48    6.80
  -4 -15  -2   31.71    5.01
   4  15  -2   23.23    4.86
  -4 -15  -2   21.22    4.35
  -4  15   2   13.26    7.22
   4 -15  -2   29.14    4.26
   4  15   2   25.39    5.37
   4  15   2    9.77    7.51
  -4 -15   2   24.51    4.32
   4 -15  -2   22.37    5.06
  -4 -15   2   28.33    5.07
  -4  15  -2   22.06    7.50
  -4 -15  -3   13.26    5.03
  -4  15   3   -2.47    7.13
   4  15  -3   18.64    6.51
   4  15  -3    9.25    4.79
   4 -15   3    4.67    5.68
  -4 -15  -3   11.50    4.48
   4 -15   3   -1.52    4.28
  -4 -15  -3   13.44    4.24
   4 -15  -3    9.84    5.04
  -4 -15   3    9.98    4.90
   4 -15  -3   12.82    4.95
   4 -15  -3   16.23    4.16
   4  15   3   -0.14    4.96
   4  15   3   -5.56    6.72
  -4  15  -3   11.90    6.38
  -4 -15   3    3.50    4.20
  -4 -15  -4   13.34    4.26
   4  15  -4    3.67    5.08
   4 -15   4   -5.88    5.76
  -4 -15  -4   20.69    5.87
  -4  15   4   -6.99    6.65
   4  15  -4   21.43    6.80
  -4 -15  -4   16.05    5.58
   4 -15   4    1.77    4.92
  -4 -15   4    2.11    4.84
   4 -15  -4    3.52    5.09
  -4 -15   4    0.91    4.50
   4  15   4   -8.18    6.98
   4 -15  -4    5.53    5.09
  -4 -15   4    5.51    5.09
  -4  15  -4   10.63    6.47
   4  15   4   10.97    5.95
   4 -15  -4    3.72    3.89
  -4 -15  -5   14.82    5.77
   4  15  -5   16.90    6.73
  -4  15   5   -7.32    6.87
  -4 -15  -5    7.36    4.26
   4 -15   5   -2.33    5.02
   4  15  -5    9.44    5.67
  -4 -15  -5   17.60    6.19
   4 -15   5   -5.85    6.45
  -4 -15   5    2.05    5.48
  -4  15  -5   20.35    6.89
  -4 -15   5    1.61    5.32
   4 -15  -5    6.17    5.67
   4  15   5    5.87    6.05
   4 -15  -5    5.58    4.32
  -4 -15   5   -2.59    4.26
   4 -15  -5    8.30    5.80
   4  15   5   -2.32    6.63
  -5  15   0   -2.43    7.68
   5  15   0   13.42    4.37
   5  15   0    9.28    6.53
   5 -15   0   -0.69    4.06
  -5  15   0    1.97    3.74
  -5  15   1   -2.09    7.31
   5  15  -1    1.28    5.72
   5 -15   1   -3.03    3.77
  -5 -15  -1    9.39    4.13
   5  15  -1   10.86    4.40
  -5 -15   1    5.86    3.63
  -5  15  -1    8.83    7.36
  -5  15  -1    8.00    3.71
   5 -15  -1    4.19    4.36
   5 -15  -1    3.50    3.65
   5  15   1    0.47    6.97
   5  15   1   12.24    4.44
  -5  15   2    2.53    6.80
  -5 -15  -2   10.65    4.20
   5  15  -2    7.91    4.66
   5 -15   2    2.63    4.05
  -5 -15  -2   12.08    4.06
   5  15  -2    9.48    5.92
  -5 -15  -2   18.66    5.01
  -5  15  -2    0.22    6.65
   5  15   2    8.84    5.03
   5  15   2   -6.36    7.29
  -5 -15   2    5.47    4.35
  -5 -15   2    7.86    3.97
   5 -15  -2   10.99    3.92
   5 -15  -2    2.30    4.43
   5  15  -3   12.79    6.11
   5 -15   3   -4.17    5.69
  -5 -15  -3    9.42    4.23
  -5 -15  -3    6.38    4.64
   5  15  -3    1.61    4.58
   5 -15   3   -5.09    4.32
  -5 -15  -3    9.98    5.10
  -5  15   3   -7.11    6.93
   5 -15  -3    4.45    4.81
  -5  15  -3   12.01    6.47
   5 -15  -3    4.75    3.91
   5  15   3    6.79    5.29
  -5 -15   3   -2.84    3.85
  -5 -15   3   -0.76    4.55
   5  15  -4    5.49    5.04
  -5 -15  -4   14.10    5.67
  -5 -15  -4    9.00    4.51
   5 -15   4    3.87    4.77
  -5 -15  -4   11.98    5.68
   5 -15   4   -8.61    6.14
   5  15  -4    9.03    5.70
  -5  15   4   -6.80    6.83
  -5 -15   4   -1.66    4.10
  -5 -15   4   -3.34    4.69
   5 -15  -4   -0.94    4.83
   5 -15  -4    2.11    3.92
  -5  15  -4   15.25    6.59
   5 -15  -4   -5.26    4.87
   5  15   4   -8.94    6.82
   5  15   4    7.49    6.01
  -5 -15  -5   15.25    5.72
   5  15  -5   12.61    6.63
   5 -15   5  -12.42    6.73
   5 -15   5   -6.80    4.82
   5  15  -5    5.82    5.23
  -5 -15  -5   14.55    4.80
  -5 -15  -5   14.97    6.48
  -5  15   5   -9.78    6.71
   5 -15  -5   10.85    5.81
  -5 -15   5    4.89    5.28
  -5 -15   5    5.55    5.21
  -5 -15   5   -3.17    4.24
   5 -15  -5   -0.46    5.37
   5 -15  -5    1.45    4.07
   5  15   5   -1.24    6.08
  -5  15  -5   17.49    6.69
   6  15   0   18.52    6.63
  -6  15   0    8.50    3.94
  -6  15   0    6.80    8.06
   6 -15   0    9.78    4.44
   6  15   0   11.87    4.62
   6 -15   1   24.73    4.85
   6  15  -1   41.85    7.19
  -6  15   1   14.52    8.19
  -6 -15  -1   35.21    5.07
   6  15  -1   28.22    5.15
  -6  15  -1   18.90    4.14
   6  15   1   27.47    5.17
   6 -15  -1   22.32    5.15
   6  15   1   22.98    7.45
  -6  15  -1   24.25    8.07
  -6 -15   1   25.53    4.03
  -6 -15  -2   32.77    5.11
   6 -15   2   22.62    4.65
  -6 -15  -2   36.52    4.80
  -6  15   2   15.98    7.46
   6  15  -2   46.16    7.30
   6  15  -2   29.36    5.46
  -6 -15  -2   51.00    6.04
  -6 -15   2   38.34    4.68
   6 -15  -2   33.09    5.66
   6  15   2   36.69    6.04
   6 -15  -2   41.37    4.78
  -6 -15   2   29.15    5.18
  -6  15  -2   32.75    8.32
   6  15   2   14.40    7.91
  -6 -15  -3   22.15    5.29
   6 -15   3    7.53    4.62
   6  15  -3   19.81    5.50
   6  15  -3   28.09    6.61
  -6 -15  -3   29.50    5.80
   6 -15   3    8.94    5.81
  -6 -15  -3   21.31    4.62
  -6  15   3   14.45    8.08
   6  15   3   28.20    6.07
  -6  15  -3   26.10    7.16
  -6 -15   3   18.63    5.09
   6 -15  -3   25.30    4.66
  -6 -15   3   20.93    4.57
   6 -15  -3   19.65    5.41
  -6 -15  -4   21.52    6.08
   6  15  -4   17.91    6.41
   6 -15   4   10.86    4.99
  -6 -15  -4   14.60    4.81
  -6  15   4    0.02    7.22
   6  15  -4   17.84    5.60
  -6 -15  -4   17.18    5.92
   6 -15  -4   12.34    4.42
   6 -15  -4   12.84    5.64
   6  15   4   -9.74    7.03
  -6 -15   4    6.04    4.27
  -6 -15   4    5.57    5.01
   6  15   4   17.34    6.50
  -6  15  -4   20.47    7.27
  -6 -15  -5   24.46    6.41
   6 -15   5    1.71    5.07
  -6 -15  -5    9.76    4.53
   6  15  -5   13.05    6.34
   6  15  -5   13.67    5.71
   6 -15   5   -6.03    6.57
  -6 -15  -5   11.35    6.14
  -6 -15   5    6.01    5.54
   6 -15  -5   10.46    5.90
   6  15   5    8.18    6.55
  -6  15  -5   18.69    6.69
   6 -15  -5    2.18    4.10
  -6 -15   5   -0.95    4.14
  -6 -15   5   -0.70    4.98
   6 -15  -5    6.49    5.59
   7  15   0   12.66    6.08
   7  15   0    5.68    4.50
  -7  15   0    0.84    3.95
  -7  15   0   -0.54    7.90
   7 -15   0   -1.08    4.37
  -7 -15  -1    3.28    4.27
   7  15  -1    6.83    4.38
  -7  15   1   -2.94    7.52
  -7  15   1    4.61    4.35
   7  15  -1   12.04    5.59
   7  15  -1    1.78    3.61
   7 -15   1   -1.48    4.21
  -7  15  -1    0.11    3.66
  -7  15  -1    1.22    7.24
   7 -15  -1   -0.28    4.63
   7  15   1   -0.02    6.39
  -7 -15   1    3.02    3.85
   7  15   1    8.22    4.73
   7  15  -2    4.27    4.71
  -7  15   2   -9.26    6.75
  -7 -15  -2    3.86    4.01
   7  15  -2   14.53    5.56
  -7 -15  -2   10.22    4.72
   7 -15  -2    0.50    4.72
  -7  15  -2    6.79    7.22
  -7 -15   2   -3.87    4.12
   7  15   2    6.12    5.41
  -7 -15   2    5.01    3.82
   7 -15  -2    1.72    3.97
  -7 -15  -3   10.07    5.06
  -7 -15  -3    8.72    5.20
   7  15  -3    3.56    4.66
  -7 -15  -3    9.02    4.24
  -7  15   3   -6.45    7.39
   7 -15   3   -7.34    4.22
   7  15  -3   12.03    5.65
   7  15   3    8.61    5.77
   7 -15  -3    3.89    4.86
  -7 -15   3    1.15    4.60
   7 -15  -3    3.88    3.96
  -7 -15   3   -0.38    3.97
  -7  15  -3   11.21    6.68
   7 -15   4  -15.39    5.62
  -7 -15  -4    4.27    5.44
  -7 -15  -4   19.26    5.54
   7  15  -4   14.60    6.07
  -7 -15  -4   12.25    4.69
   7  15  -4    6.80    5.17
  -7  15   4   -5.91    6.95
   7 -15   4    0.52    4.73
   7 -15  -4   -1.09    4.95
   7 -15  -4    1.48    4.08
  -7 -15   4    2.52    4.79
  -7 -15   4   -6.95    3.74
   7  15   4    8.90    6.46
  -7  15  -4   10.85    6.59
  -7 -15  -5   13.76    5.95
   7 -15   5  -10.59    6.40
  -7  15   5   -8.87    6.73
   7  15  -5    9.38    6.19
  -7 -15  -5   11.57    4.57
  -7 -15  -5   14.55    6.75
   7  15  -5   10.19    5.65
   7 -15   5   -5.92    4.74
   7 -15  -5    5.81    5.75
   7  15   5    5.95    6.81
  -7 -15   5   -6.83    4.49
  -7  15  -5   14.32    6.12
  -7 -15   5    8.48    5.65
   7 -15  -5   -1.56    3.93
  -7 -15   5    2.82    4.43
   8 -15   0   18.11    5.11
   8  15   0   23.98    5.43
  -8  15   0   10.48    8.45
  -8  15   0   11.84    4.44
   8 -15   1   23.08    5.12
  -8  15   1   20.13    4.98
  -8  15   1   14.29    8.43
   8  15  -1   25.63    4.46
   8  15  -1   30.04    5.58
  -8  15  -1   23.06    4.79
  -8  15  -1   17.31    8.04
   8  15   1   29.60    5.58
   8 -15  -1   24.81    5.57
  -8 -15   1   27.60    4.90
  -8 -15  -2   22.91    4.91
  -8 -15  -2   21.81    5.33
   8  15  -2   23.69    5.46
   8  15  -2   30.16    7.37
   8  15  -2   17.79    4.42
  -8 -15  -2   24.24    4.67
   8 -15   2    8.73    3.95
  -8  15   2   17.47    5.21
  -8  15   2    3.56    7.37
  -8  15  -2   25.51    8.22
  -8 -15   2   21.46    4.17
   8  15   2   18.49    6.07
  -8 -15   2   24.44    4.83
   8 -15  -2   18.84    5.64
  -8  15  -2    7.65    4.48
  -8 -15  -3   16.87    5.64
  -8 -15  -3   17.34    4.55
   8  15  -3   15.13    5.61
   8 -15   3    7.87    4.43
  -8  15   3    3.78    7.87
  -8 -15  -3   25.30    5.89
   8  15  -3   24.29    6.22
   8 -15  -3   12.14    4.65
   8  15   3   17.42    6.17
   8 -15  -3   15.59    5.57
  -8 -15   3   11.18    5.19
  -8 -15   3    9.82    4.17
  -8  15  -3   30.16    7.45
  -8  15   4    1.43    7.90
  -8 -15  -4   25.16    6.12
   8  15  -4   15.47    5.63
  -8 -15  -4   22.22    6.55
  -8 -15  -4   26.14    5.06
   8 -15   4    2.09    6.14
   8 -15   4    9.33    4.80
   8  15  -4   21.50    6.55
   8 -15  -4   12.99    5.69
  -8 -15   4   15.34    5.10
   8  15   4   17.69    6.61
  -8  15  -4   31.68    7.72
  -8 -15   4   11.04    4.36
   8 -15  -4   10.26    4.39
   9  15   0    4.30    3.59
  -9  15   0   -2.92    7.99
  -9  15   0    0.37    4.11
   9 -15   0   -3.71    4.74
   9  15   0    3.94    4.73
  -9 -15  -1   12.32    3.88
   9  15  -1   -0.40    3.83
  -9  15   1   -8.70    7.78
   9  15  -1   10.04    4.83
  -9  15   1    2.91    4.41
   9 -15   1   -0.58    4.73
  -9  15  -1   -5.40    4.25
   9  15   1    8.10    5.05
   9 -15  -1   -3.12    4.70
  -9  15  -1    3.87    7.65
  -9  15   2    0.70    4.69
   9  15  -2   -5.43    3.70
  -9  15   2  -14.07    7.09
   9 -15   2   -4.99    4.35
  -9 -15  -2    8.51    4.64
  -9 -15  -2    9.28    5.15
  -9 -15  -2    6.59    4.13
   9  15  -2    8.18    5.12
  -9  15  -2   -0.87    4.16
   9 -15  -2   -4.08    4.98
  -9 -15   2    6.06    4.26
  -9  15  -2    4.00    7.20
   9  15   2    5.11    5.66
   9 -15   3   -2.23    4.01
  -9 -15  -3    9.81    5.20
  -9 -15  -3   13.70    5.52
  -9 -15  -3    8.38    4.49
   9  15  -3    3.34    5.23
  -9  15   3   -8.86    7.20
  -9  15  -3   16.00    6.93
   9  15   3    3.98    5.80
  -9 -15   3   -0.07    4.57
  -9 -15   3    0.67    3.70
   9 -15  -3    1.59    5.42
  -9 -15  -4   14.17    5.80
   9  15  -4    9.58    5.25
  -9 -15  -4   12.26    6.14
  -9  15   4  -14.83    7.51
   9 -15   4   -0.92    4.29
   9 -15   4  -10.99    6.88
  -9 -15  -4   11.10    4.71
  -9  15  -4   24.45    7.02
  -9 -15   4   -0.05    4.54
   9 -15  -4   -2.99    5.29
   9  15   4   10.98    6.51
  -9 -15   4    1.05    4.03
 -10  15   0   24.91    9.48
  10  15   0   29.96    4.42
 -10  15   0   26.38    5.32
  10 -15   0   23.83    5.74
  10  15   0   35.23    6.07
  10  15  -1   23.18    5.25
  10  15  -1   16.35    4.33
 -10 -15  -1   17.45    4.26
 -10  15   1   10.22    4.73
 -10  15   1    4.64    8.63
  10  15   1   12.80    3.72
 -10  15  -1   17.01    8.31
  10  15   1   14.65    5.35
 -10  15  -1    7.28    4.67
  10 -15  -1   12.70    5.53
 -10 -15  -2   21.57    4.89
  10  15  -2   14.83    5.30
 -10 -15  -2   19.13    5.06
  10  15  -2    9.45    4.52
 -10 -15  -2   24.44    5.89
 -10  15   2    7.76    4.68
  10 -15  -2    6.06    5.37
 -10 -15   2    8.05    4.62
 -10  15  -2   17.62    8.06
  10  15   2   17.81    6.12
 -10  15  -2    4.55    4.67
 -10 -15  -3   19.84    4.71
  10 -15   3   10.39    4.43
 -10  15   3   16.45    5.30
 -10 -15  -3   19.99    6.08
  10  15  -3   18.88    5.78
 -10 -15  -3   20.63    6.25
  10 -15  -3    5.39    5.61
 -10  15  -3   24.86    7.10
  10  15   3   19.16    6.50
 -10 -15   3   12.31    4.95
 -10 -15   3   15.78    4.14
  10  15  -4   14.09    5.60
 -10 -15  -4   12.15    6.41
 -10 -15  -4   23.91    5.19
 -10 -15  -4   21.40    6.50
 -10  15   4   13.70    5.51
 -10  15   4   -4.18    8.07
  10 -15   4    5.54    4.93
  10  15   4    7.98    6.52
  10 -15  -4    6.27    5.92
 -10  15  -4   22.76    7.01
 -10 -15   4    3.43    3.95
 -10 -15   4    7.25    4.92
  11 -15   0   -7.63    4.83
  11  15   0    2.78    3.61
 -11  15   0   -2.30    8.07
 -11  15   0   -4.63    4.49
  11  15   0   14.33    5.30
 -11 -15  -1   11.94    4.51
  11  15  -1    3.77    3.92
 -11  15   1    0.86    4.61
 -11  15   1   -1.68    8.75
  11  15  -1   11.32    4.99
  11  15   1    0.60    3.51
 -11  15  -1    7.53    8.00
  11 -15  -1   -0.05    5.22
  11  15   1   12.89    5.18
 -11  15  -1   -1.51    4.67
 -11 -15  -2   10.67    5.36
 -11 -15  -2    5.56    4.45
 -11 -15  -2    9.19    4.99
 -11  15   2   -3.06    4.60
  11  15  -2   13.10    5.47
 -11  15   2  -14.87    7.92
  11  15  -2    0.28    4.18
 -11 -15   2    4.68    4.69
 -11  15  -2   -6.11    4.43
 -11  15  -2    5.56    7.56
  11  15   2   12.66    5.90
  11 -15  -2   -1.55    5.32
  11 -15   3   -1.44    4.00
 -11 -15  -3   18.03    5.96
 -11 -15  -3    7.89    5.86
  11  15  -3   -1.55    4.43
 -11 -15  -3    9.13    4.66
  11  15  -3   13.78    5.38
 -11  15   3   -3.52    4.77
 -11 -15   3    2.31    4.41
  11  15   3    3.66    5.91
  11 -15  -3   -5.23    5.32
  12  15   0    8.70    3.80
 -12  15   0    2.00    4.93
 -12  15   0   -2.32    8.27
  12  15   0   14.46    5.38
  12 -15   0   -1.92    5.47
 -12  15   1    4.93    4.85
 -12  15   1   -9.21    8.83
  12  15  -1   16.09    5.01
 -12 -15  -1   10.67    4.49
  12  15  -1    8.79    4.27
 -12  15  -1   14.51    8.20
 -12  15  -1   -2.66    4.76
  12  15   1   10.79    3.86
  12  15   1   16.04    5.39
  12 -15  -1    4.61    5.53
 -12 -15  -2    3.77    4.56
 -12 -15  -2   12.69    5.60
  12  15  -2    5.87    4.56
 -12  15   2    3.45    4.96
 -12 -15  -2   10.50    5.32
  12  15   2   15.83    5.95
 -12  15  -2   15.38    7.74
  12 -15  -2   -2.79    5.51
 -12  15  -2    2.67    4.92
 -13  15   0    1.51    5.07
 -13  15   0   -0.58    8.39
  13  15   0    7.69    4.01
  13  15   0   15.69    5.08
 -13 -15  -1    8.87    4.53
  13  15  -1   17.30    5.11
 -13  15   1  -16.73    8.78
  13  15  -1    3.48    4.39
 -13  15   1   -1.10    5.20
  13 -15  -1   -2.47    5.60
  13  15   1   12.29    5.10
  13  15   1    7.04    3.86
 -13  15  -1    0.19    4.94
 -13  15  -1    7.34    7.73
   0  16   0   11.58    7.84
   0  16  -1   32.63    8.15
   0 -16  -1   31.19    5.05
   0  16   1   15.77    8.40
   0 -16   2   14.74    4.78
   0 -16  -2   25.27    4.57
   0 -16  -2   21.63    4.87
   0 -16  -2   21.03    5.10
   0  16   2    6.06    7.72
   0  16  -2   24.57    7.54
   0 -16  -3   23.31    5.69
   0 -16   3   16.27    5.73
   0 -16  -3   26.45    5.40
   0  16   3    4.42    7.48
   0  16  -3   29.98    7.66
   0 -16  -3   18.81    4.58
   0 -16   3    7.49    4.97
   0  16  -4   23.73    7.37
   0 -16  -4   19.75    6.09
   0  16   4    1.99    7.84
   0 -16   4   15.71    6.17
   0 -16  -4   16.62    4.68
   0 -16  -4   20.26    5.90
   0 -16   4   12.02    5.37
   0 -16   5    1.89    5.33
   0 -16  -5   16.21    4.97
   0 -16  -5   10.05    5.91
   0  16  -5   24.12    7.25
   0 -16  -5   17.04    6.34
   0 -16   5    1.79    6.25
   1  16   0    4.19    7.42
  -1  16   0    5.43    7.72
  -1 -16  -1    7.07    4.31
   1  16  -1   14.20    7.67
  -1  16   1   -2.73    7.70
   1  16   1   -6.23    7.68
   1 -16  -1    0.49    4.28
  -1  16  -1    6.50    7.28
   1  16  -2    9.72    7.17
  -1  16   2   -3.68    7.36
   1 -16   2    2.99    6.54
   1 -16   2   -2.46    4.42
  -1 -16  -2   10.72    3.96
  -1 -16  -2    5.43    4.56
  -1 -16  -2    4.01    4.66
  -1  16  -2    5.98    6.91
   1 -16  -2   11.15    4.16
   1 -16  -2    8.03    4.82
   1 -16  -2    6.12    4.52
   1  16   2   -5.59    7.33
  -1 -16   2   -2.76    4.37
  -1  16   3   -7.35    7.11
  -1 -16  -3    1.16    4.82
   1 -16   3   -1.38    5.62
  -1 -16  -3    3.35    4.83
   1 -16   3   -4.53    4.73
  -1 -16  -3    5.81    3.91
   1  16  -3   11.92    6.77
  -1 -16   3    2.34    4.72
   1 -16  -3    5.67    5.07
  -1 -16   3   -4.19    5.43
   1  16   3   -7.46    7.04
   1 -16  -3    9.64    4.27
   1 -16  -3    4.61    5.13
  -1  16  -3   15.74    7.02
  -1 -16  -4    9.29    4.20
   1 -16   4   -2.17    5.09
   1  16  -4    5.00    4.98
  -1 -16  -4    3.87    5.57
   1 -16   4   -0.31    5.99
  -1 -16  -4    7.52    5.42
   1  16  -4   12.57    6.75
  -1  16  -4   11.23    6.81
   1 -16  -4   -2.63    4.24
  -1 -16   4   -2.90    5.66
  -1 -16   4   -4.59    4.74
  -1 -16   4   -8.36    4.73
   1  16   4   -7.68    7.50
   1 -16  -4    5.36    5.32
   1 -16  -4    0.81    5.32
  -1  16   5   -3.82    7.50
   1  16  -5    2.72    5.21
  -1 -16  -5    9.39    6.19
   1 -16   5   -5.75    5.28
  -1 -16  -5    7.42    5.77
  -1 -16  -5   10.41    4.31
   1  16  -5   17.74    6.84
   1 -16   5   -2.93    6.46
  -1 -16   5   -0.86    5.81
  -1 -16   5    4.17    5.49
   1 -16  -5    3.49    5.63
  -1 -16   5   -6.87    5.04
   1 -16  -5    8.36    5.62
   1  16   5  -13.65    6.84
   1 -16  -5    3.52    4.45
  -1  16  -5   18.86    7.07
   2  16   0   18.84    7.87
  -2  16   0   15.65    8.26
   2 -16   0   19.79    4.32
  -2  16   1   12.36    8.23
  -2 -16  -1   28.87    4.93
   2  16  -1   25.97    7.80
   2  16   1   20.90    8.49
   2 -16  -1   21.53    4.67
  -2  16  -1   22.20    7.95
   2  16  -2   29.05    4.93
   2  16  -2   26.28    7.50
  -2 -16  -2   24.64    5.22
  -2  16   2   10.38    7.75
  -2 -16  -2   21.33    4.75
   2 -16   2   17.67    4.99
  -2 -16  -2   24.97    4.30
   2 -16  -2   20.14    4.97
  -2 -16   2   24.03    4.78
   2 -16  -2   22.70    5.22
   2 -16  -2   18.69    4.15
   2  16   2    3.46    7.73
  -2  16  -2   25.22    7.83
  -2 -16  -3   18.98    4.29
   2  16  -3   23.47    7.03
  -2 -16  -3   19.59    5.26
   2  16  -3   14.04    4.83
  -2  16   3    0.43    7.65
  -2 -16  -3   20.16    5.26
   2 -16   3    6.62    5.77
   2 -16   3    6.36    5.07
  -2 -16   3    2.11    5.28
  -2  16  -3   29.61    7.79
   2 -16  -3   12.46    5.13
   2 -16  -3   16.93    4.44
  -2 -16   3    5.06    4.61
   2  16   3   -5.98    7.15
   2 -16  -3   11.22    5.32
   2  16  -4   10.82    5.24
  -2 -16  -4   10.39    4.20
  -2 -16  -4   21.15    5.88
  -2  16   4   -5.04    7.62
  -2 -16  -4   17.80    5.58
   2 -16   4    6.99    5.40
   2  16  -4   27.39    7.45
   2 -16   4   -7.89    5.88
   2  16   4   -4.76    7.43
   2 -16  -4   11.10    5.58
  -2 -16   4   18.96    5.46
  -2 -16   4    5.93    5.12
   2 -16  -4   16.14    5.69
   2 -16  -4   12.30    4.53
  -2  16  -4   22.28    7.24
  -2 -16   4   12.37    5.90
   2 -16   5    2.91    6.95
  -2 -16  -5   25.20    6.37
  -2 -16  -5   26.08    5.95
   2  16  -5   19.80    7.06
  -2  16   5   -2.08    7.45
   2  16  -5   12.94    5.57
  -2 -16  -5   24.41    4.85
   2 -16   5   -0.24    5.38
  -2 -16   5    4.79    5.61
   2 -16  -5    6.80    5.82
   2 -16  -5   10.01    4.72
  -2 -16   5   -1.86    5.06
   2 -16  -5   16.32    6.46
  -2 -16   5    3.95    6.28
   2  16   5    3.00    7.34
   3 -16   0   -0.37    4.04
  -3  16   0    0.60    7.91
   3  16   0   -1.48    7.01
  -3  16   1    1.13    7.90
   3  16  -1   13.40    7.23
  -3 -16  -1    7.13    4.24
   3  16   1   -1.80    7.60
   3 -16  -1    2.49    3.64
  -3  16  -1    7.26    7.48
   3 -16  -1    4.29    4.29
   3  16  -2    8.73    4.49
  -3 -16  -2    7.12    4.13
  -3  16   2   -5.37    7.31
  -3 -16  -2   10.30    4.49
  -3 -16  -2    8.55    3.77
   3  16  -2   18.97    6.88
  -3  16  -2    8.97    7.11
   3  16   2   -2.78    7.64
  -3 -16   2    3.86    4.39
   3 -16  -2    8.05    4.50
   3 -16  -2    4.73    3.77
   3 -16  -2    3.00    4.61
   3  16   2   16.16    4.76
   3  16  -3   14.86    6.92
   3 -16   3   -9.74    5.56
  -3 -16  -3    5.97    4.79
   3 -16   3   -6.19    4.82
  -3  16   3  -11.73    7.36
   3  16  -3    3.77    4.55
  -3 -16  -3    6.25    4.57
  -3 -16  -3    7.97    3.92
  -3 -16   3   -7.31    4.91
   3  16   3  -11.53    7.08
   3 -16  -3    0.69    4.92
   3  16   3   10.76    5.04
   3 -16  -3    3.71    4.04
  -3  16  -3    5.64    6.43
   3 -16  -3    1.28    4.86
  -3 -16   3   -2.02    4.44
  -3 -16  -4   10.99    5.32
  -3 -16  -4   19.36    5.60
  -3  16   4  -10.14    7.40
   3  16  -4    9.74    5.00
   3  16  -4   15.71    6.34
   3 -16   4  -15.28    5.96
   3 -16   4   -7.31    5.15
  -3 -16  -4   11.82    4.21
   3 -16  -4   -0.99    3.92
  -3 -16   4   -4.48    4.38
   3 -16  -4    0.68    5.30
   3  16   4    1.24    5.49
  -3  16  -4   10.86    6.80
  -3 -16   4   -2.58    5.45
  -3 -16   4    3.95    4.79
   3 -16  -4   -0.43    5.21
   3 -16   5   -1.79    5.25
   3  16  -5    2.07    5.21
   3  16  -5    8.23    6.62
  -3  16   5   -9.73    6.98
  -3 -16  -5    9.33    5.35
  -3 -16  -5   10.60    5.90
   3 -16   5   -7.26    6.69
  -3 -16  -5   14.19    4.41
   3  16   5  -10.31    6.96
   3 -16  -5   -0.96    5.65
  -3 -16   5   -0.14    5.52
   3 -16  -5    7.07    4.46
   3 -16  -5    5.23    5.81
   3  16   5   -6.35    7.26
  -3 -16   5   -5.53    5.72
  -3 -16   5   -6.36    4.68
   4  16   0   20.42    4.48
   4  16   0   15.16    7.42
   4 -16   0   14.54    4.66
  -4  16   0   13.67    8.30
  -4 -16  -1   14.49    4.30
   4  16  -1   16.09    7.07
  -4  16   1    1.72    7.94
   4  16  -1   11.45    4.53
   4  16   1    7.28    7.76
   4  16   1   14.91    4.26
   4 -16  -1    7.87    3.81
  -4  16  -1    2.13    7.55
   4 -16  -1    4.40    4.43
  -4 -16  -2   14.00    4.04
   4 -16   2    3.24    4.56
  -4 -16  -2   21.89    4.96
   4  16  -2   20.14    6.66
  -4 -16  -2   13.95    4.41
  -4  16   2   -0.20    7.39
   4  16  -2   15.26    4.98
  -4  16  -2   13.50    7.78
   4  16   2    2.29    7.93
   4 -16  -2    8.58    4.84
  -4 -16   2   10.29    4.33
   4  16   2   20.96    5.32
   4 -16  -2   14.03    4.11
   4  16  -3   12.13    5.02
  -4 -16  -3   10.74    4.79
   4  16  -3   18.17    6.52
  -4 -16  -3   10.16    4.10
  -4  16   3   -7.11    7.51
  -4 -16  -3   16.26    5.15
   4 -16   3   -4.66    4.59
  -4 -16   3    5.13    5.06
   4 -16  -3    4.71    4.84
   4  16   3   11.87    5.33
   4 -16  -3    6.33    5.11
   4 -16  -3    5.80    4.06
   4  16   3   -4.56    7.29
  -4 -16   3    2.97    4.49
  -4  16  -3   13.84    6.88
  -4 -16  -4   17.08    5.26
  -4 -16  -4   13.81    5.63
  -4 -16  -4   14.40    4.44
   4  16  -4    7.57    5.13
   4  16  -4   20.26    6.59
   4 -16   4  -10.84    6.13
   4 -16   4  -11.62    4.45
   4 -16  -4    6.49    4.37
  -4  16  -4   13.52    7.07
   4  16   4  -13.52    6.96
  -4 -16   4    4.26    5.62
  -4 -16   4    1.98    4.66
   4 -16  -4    7.32    5.39
   4  16   4   10.55    5.90
  -4 -16   4    9.05    5.15
   4 -16  -4    1.57    5.25
  -4 -16  -5   18.88    6.39
   4 -16   5   -4.87    5.19
  -4 -16  -5   18.56    5.99
  -4 -16  -5   15.89    4.57
   4  16  -5   17.92    6.94
   4  16  -5   13.04    5.86
  -4 -16   5    3.05    4.92
  -4  16  -5   18.14    6.92
   4 -16  -5    5.69    5.76
   4 -16  -5    6.03    5.88
   4 -16  -5    4.39    4.40
   4  16   5    8.41    6.43
   4  16   5  -11.41    7.05
  -4 -16   5    0.33    5.29
  -4 -16   5   -2.24    5.68
   5  16   0   13.48    6.84
   5 -16   0   -0.34    4.35
  -5  16   0   -1.01    8.00
  -5  16   0    2.82    3.92
   5  16   0   11.63    4.33
   5  16  -1    6.12    4.57
  -5  16   1   -2.88    8.08
   5  16  -1   10.87    6.37
   5  16   1    3.30    7.48
   5 -16  -1    0.38    4.66
  -5 -16   1    3.20    3.87
   5  16   1   12.45    4.31
  -5  16  -1    0.98    3.72
   5 -16  -1   -0.51    3.73
  -5  16  -1    1.69    7.59
   5  16  -2    8.35    6.12
  -5  16   2   -4.71    7.13
   5  16  -2    6.80    4.52
  -5 -16  -2   11.33    4.76
   5 -16   2  -11.62    4.25
  -5 -16  -2    5.19    4.08
  -5 -16  -2    2.78    4.02
   5 -16  -2    4.93    4.01
  -5 -16   2   -0.56    3.91
   5  16   2    9.22    5.06
  -5  16  -2   12.22    7.52
   5 -16  -2    0.09    4.74
   5  16   2  -12.98    7.45
  -5 -16  -3   13.38    5.15
   5  16  -3    7.09    4.91
  -5  16   3   -3.47    7.51
   5  16  -3   10.96    6.14
  -5 -16  -3    6.86    4.18
   5 -16   3   -4.07    4.57
  -5 -16  -3   13.08    5.10
   5 -16  -3    4.85    4.21
  -5  16  -3   16.02    6.79
  -5 -16   3    4.56    4.94
   5  16   3  -12.84    7.02
   5  16   3   17.57    5.75
   5 -16  -3    7.13    5.25
  -5 -16   3    4.08    4.28
  -5 -16  -4   20.66    5.76
  -5 -16  -4   10.92    4.56
   5  16  -4   11.78    5.26
   5  16  -4   16.63    6.19
  -5 -16  -4   15.19    5.80
   5 -16   4   -0.18    4.83
  -5  16   4   -3.60    7.93
  -5  16  -4   10.86    6.74
   5  16   4    0.26    5.73
   5 -16  -4   10.96    5.69
   5 -16  -4   -1.79    4.18
   5 -16  -4    2.61    5.36
  -5 -16   4   -0.71    4.34
  -5 -16   4   -3.40    5.18
   5  16  -5    5.52    5.59
  -5  16   5   -5.84    7.37
  -5 -16  -5    8.41    4.55
   5 -16   5   -3.70    5.27
   5 -16   5   -9.83    6.95
   5  16  -5   12.23    6.29
  -5 -16  -5   14.86    6.45
  -5  16  -5   17.89    6.86
   5 -16  -5    1.72    4.26
   5 -16  -5   -3.58    5.41
  -5 -16   5   -2.24    4.70
   5  16   5    4.73    6.51
  -5 -16   5   -1.81    5.83
  -5 -16   5   -2.86    5.14
   5 -16  -5   12.15    5.84
  -6  16   0    0.82    3.94
  -6  16   0   -4.61    7.80
   6 -16   0    0.49    4.46
   6  16   0   11.23    4.52
   6  16   0   14.90    6.97
   6  16  -1   14.36    4.76
   6 -16   1    2.67    4.36
  -6  16   1   -0.84    8.27
   6  16  -1   14.38    5.98
  -6  16  -1    2.16    3.75
   6  16   1    3.34    7.08
   6  16   1   13.74    4.61
   6 -16  -1    0.40    4.80
  -6 -16   1    8.19    3.90
  -6  16  -1    2.83    7.61
  -6 -16  -2   14.24    4.72
   6  16  -2    9.50    4.83
  -6 -16  -2   12.64    5.04
  -6 -16  -2    5.70    4.19
   6  16  -2   13.78    6.04
   6 -16  -2    1.54    4.99
  -6  16  -2    7.65    7.38
  -6 -16   2    5.78    4.77
   6  16   2   10.60    5.23
  -6 -16   2   -1.13    4.03
   6 -16  -2    1.80    4.08
  -6  16   3   -7.22    7.48
   6  16  -3    8.33    5.11
   6 -16   3   -9.00    4.34
   6  16  -3   17.24    6.14
  -6 -16  -3    4.83    4.29
  -6 -16  -3   10.34    4.94
  -6 -16  -3   15.05    5.45
  -6 -16   3    5.08    4.10
  -6 -16   3    0.42    4.98
  -6  16  -3    8.80    6.53
   6  16   3    8.12    5.54
   6 -16  -3   -1.40    4.96
   6 -16  -3    4.18    4.07
  -6 -16  -4   17.10    5.68
  -6  16   4  -10.10    7.45
   6 -16   4   -9.07    7.10
   6  16  -4    7.84    5.26
  -6 -16  -4   15.44    5.93
   6 -16   4   -3.33    5.04
  -6 -16  -4    5.90    4.45
   6  16  -4   15.12    5.91
  -6  16  -4   14.43    6.79
  -6 -16   4    0.31    4.98
  -6 -16   4   -3.57    4.24
   6  16   4    2.51    5.84
   6 -16  -4    3.25    4.09
   6 -16  -4   -0.50    5.22
   7  16   0    7.29    4.59
  -7  16   0   -1.84    8.10
   7  16   0    8.31    6.67
   7 -16   0    0.54    4.68
  -7  16   0   -4.70    4.07
   7 -16   1   -8.26    4.25
   7  16  -1   -3.94    3.43
  -7 -16  -1    6.77    4.90
  -7  16   1   -8.32    8.09
  -7  16   1    1.03    4.36
   7  16  -1   13.36    4.92
  -7  16  -1    3.14    7.66
  -7 -16   1    0.00    3.53
  -7  16  -1    2.99    3.89
   7 -16  -1   -3.25    4.73
  -7 -16   1    6.17    4.40
   7  16   1    6.87    4.57
  -7 -16  -2    6.91    4.12
   7  16  -2    7.38    4.89
   7  16  -2   14.39    5.58
  -7  16   2   -8.63    7.42
  -7 -16  -2   14.99    5.16
  -7 -16  -2   11.98    4.54
  -7 -16   2    2.28    4.57
   7 -16  -2   -0.58    4.94
  -7 -16   2   -0.94    3.88
  -7  16  -2   10.33    7.50
   7  16   2    8.92    5.53
  -7 -16  -3   11.52    5.44
   7 -16   3   -4.97    4.22
   7  16  -3    4.02    5.05
  -7  16   3   -8.13    7.47
  -7 -16  -3    8.06    5.15
  -7 -16  -3    5.74    4.45
   7  16  -3   15.58    5.59
   7 -16  -3    4.54    4.36
   7  16   3   14.61    5.90
  -7 -16   3    3.61    4.30
  -7  16  -3   12.82    7.00
  -7 -16   3    0.69    4.82
   7 -16  -3   -2.18    4.92
   7 -16   4   -3.09    4.86
  -7 -16  -4   18.42    6.36
  -7 -16  -4    5.07    4.68
   7  16  -4   20.28    6.34
  -7 -16  -4   21.53    6.06
   7  16  -4    5.72    5.07
  -7 -16   4   -1.11    4.94
  -7 -16   4    5.30    4.52
   7 -16  -4   -1.97    4.18
   7  16   4    6.42    6.13
  -7  16  -4   19.80    7.22
   7 -16  -4    3.40    5.35
   8  16   0   12.10    4.80
  -8  16   0   -8.02    7.90
   8 -16   0   -0.34    4.81
  -8  16   0   -2.03    4.15
  -8  16   1   -8.33    8.09
  -8  16   1   -0.34    4.37
   8  16  -1    1.86    3.83
   8 -16   1   -3.58    4.62
   8  16  -1   15.86    4.91
  -8  16  -1   -1.93    4.16
   8  16   1   13.30    4.85
  -8  16  -1    2.96    7.73
  -8 -16   1   -1.96    4.06
   8 -16  -1    1.81    5.00
  -8  16   2    5.37    4.81
  -8 -16  -2   11.02    4.53
  -8  16   2  -10.97    7.79
   8  16  -2   10.56    5.07
  -8 -16  -2    6.83    4.21
  -8 -16  -2    9.67    4.92
   8 -16  -2   -5.81    5.14
  -8 -16   2    4.27    3.97
  -8  16  -2   13.36    7.95
   8  16   2    4.28    5.38
  -8 -16   2   -2.39    4.50
  -8 -16  -3    4.15    5.23
   8 -16   3   -2.84    4.15
  -8 -16  -3    4.01    4.98
  -8 -16  -3    9.29    4.48
  -8  16   3  -12.85    7.32
   8  16  -3    2.84    4.81
   8  16   3    7.88    5.91
   8 -16  -3   -1.35    4.37
  -8 -16   3   -0.86    4.19
  -8 -16   3   -0.96    5.06
   8 -16  -3    1.87    5.31
   8 -16   4   -0.95    4.81
  -8 -16  -4    7.10    6.20
  -8 -16  -4   11.29    5.72
  -8 -16  -4    8.64    4.54
   8  16  -4    8.44    5.27
  -8 -16   4   -2.41    5.22
  -8 -16   4    1.01    4.41
   8 -16  -4    0.22    5.55
   8 -16  -4   -0.57    4.45
   8  16   4    6.27    6.22
  -8  16  -4   13.50    6.65
  -9  16   0   -2.34    4.22
  -9  16   0  -10.20    7.83
   9 -16   0   -3.45    4.91
   9  16   0   11.39    4.90
   9  16  -1   10.58    4.84
  -9 -16  -1    5.40    4.00
   9  16  -1    1.08    3.93
   9 -16   1   -6.23    4.73
  -9  16   1  -10.57    8.35
  -9  16   1    2.78    4.48
  -9  16  -1   10.02    7.81
   9 -16  -1   -5.18    4.93
  -9 -16   1    9.94    4.78
  -9  16  -1    1.35    4.47
   9  16   1    9.31    4.79
   9  16  -2   -0.11    3.96
   9  16  -2   14.93    5.17
  -9 -16  -2   11.33    4.70
  -9 -16  -2    9.68    5.02
  -9 -16  -2    4.52    4.11
  -9  16   2    2.36    4.67
   9 -16  -2   -2.57    5.18
  -9  16  -2   -1.00    4.72
  -9 -16   2    3.13    4.57
  -9  16  -2   11.19    7.68
  -9 -16   2   10.86    4.07
   9  16   2    8.05    5.53
  -9 -16  -3    8.07    4.38
   9  16  -3    6.70    5.26
   9 -16   3   -5.64    4.31
  -9 -16  -3   16.25    5.41
  -9  16   3    4.43    5.01
  -9 -16  -3   10.13    5.29
  -9  16  -3   18.93    7.15
  -9 -16   3   -0.53    4.88
  -9 -16   3    2.94    4.22
   9 -16  -3   -1.23    5.42
   9  16   3   11.34    6.09
 -10  16   0    2.38    4.60
  10  16   0   14.61    5.20
  10 -16   0   -2.12    5.05
  10  16   0    2.55    3.68
 -10  16   0    0.62    8.35
 -10  16   1   -9.31    8.60
  10  16  -1   15.32    4.96
 -10  16   1    3.01    4.66
  10  16  -1    1.18    3.95
 -10 -16  -1   11.85    4.26
 -10  16  -1    2.72    4.74
 -10  16  -1    9.39    7.90
  10  16   1    8.70    5.07
  10 -16  -1    0.12    5.38
  10  16  -2   13.68    5.26
 -10 -16  -2   20.93    5.57
  10  16  -2   -2.04    4.12
 -10 -16  -2    5.82    4.66
 -10  16   2    2.05    4.69
 -10 -16  -2    7.95    4.22
  10  16   2    4.65    5.56
 -10  16  -2   -5.80    4.44
  10 -16  -2    1.73    5.34
 -10 -16   2    8.77    4.46
 -10  16  -2   16.74    7.72
 -10  16   3    6.59    5.06
 -10 -16  -3   15.53    5.76
 -10 -16  -3    8.91    5.58
 -10 -16  -3   12.97    4.77
  10  16  -3   12.02    5.52
 -10 -16   3    2.39    5.22
  10  16   3   18.76    6.39
 -10 -16   3   13.38    4.49
  10 -16  -3   -3.10    5.54
  11  16   0   11.27    5.00
  11 -16   0   -5.33    5.25
 -11  16   0   -0.91    4.74
 -11  16   0   -3.97    8.05
  11  16   0    3.65    3.88
 -11 -16  -1    8.93    4.79
  11  16  -1    2.33    3.97
 -11  16   1  -10.84    8.61
 -11  16   1    0.39    4.75
 -11  16  -1    0.32    4.91
  11  16   1   15.04    5.12
 -11  16  -1    7.78    7.70
  11 -16  -1   -5.13    5.39
 -11 -16  -2    8.46    4.62
  11  16  -2   12.21    5.27
 -11 -16  -2    9.56    6.49
 -11  16   2    2.49    5.17
  11  16  -2    3.23    4.54
 -11  16  -2   17.80    7.82
  11 -16  -2   -0.69    5.64
  11  16   2   18.72    5.94
 -11 -16   2    3.47    4.54
 -11  16  -2   -4.20    4.73
  12  16   0    8.95    4.24
 -12  16   0   -3.10    8.10
  12  16   0   23.08    5.50
 -12  16   0    5.72    5.36
   0  17   0   -1.49    7.76
   0 -17  -1    1.80    4.32
   0  17  -1    4.63    7.42
   0  17   1   -1.00    8.36
   0  17  -2    6.85    6.91
   0 -17  -2    4.55    4.04
   0 -17   2   -5.30    4.61
   0 -17  -2   -1.04    4.55
   0  17   2  -12.45    7.57
   0 -17  -2    3.88    4.79
   0 -17  -3    4.47    4.31
   0 -17  -3    1.16    5.03
   0 -17   3   -8.78    4.79
   0  17  -3   11.72    6.87
   0 -17   3    1.02    6.34
   0  17   3  -10.66    7.68
   0 -17  -3    2.75    4.96
   0 -17  -4    2.92    5.40
   0 -17  -4   -0.93    5.38
   0 -17   4   -1.14    6.18
   0 -17  -4    4.11    4.54
   0  17  -4   15.98    6.78
   0 -17   4  -13.32    5.04
   1  17   0    2.87    7.72
  -1  17   0   -4.26    7.86
   1  17  -1   14.19    7.74
  -1  17   1   -4.61    8.49
  -1 -17  -1    0.18    4.23
   1 -17  -1   -1.15    4.28
   1  17   1   -1.16    8.40
  -1  17  -1   10.75    7.73
   1 -17   2   -5.41    5.44
   1  17  -2   18.01    7.53
  -1 -17  -2    8.95    4.20
  -1 -17  -2    6.38    4.66
  -1 -17  -2   -0.03    4.67
  -1  17   2   -5.81    8.09
  -1  17  -2   11.92    7.59
  -1 -17   2   -4.14    4.55
   1 -17  -2    5.80    4.83
   1 -17  -2    6.76    4.08
   1  17   2   -2.05    8.17
   1 -17  -2    4.20    4.92
   1 -17   3  -10.44    4.80
  -1  17   3   -6.46    7.89
   1  17  -3   13.38    6.84
  -1 -17  -3   14.14    5.03
  -1 -17  -3   13.03    5.31
  -1 -17  -3    4.50    4.19
  -1 -17   3   -4.00    4.84
   1 -17  -3    9.79    5.21
   1 -17  -3    2.77    4.22
  -1  17  -3   15.50    7.32
   1 -17  -3    5.43    5.19
   1  17   3  -10.34    7.56
  -1 -17  -4    7.27    4.29
  -1 -17  -4   10.88    5.64
  -1 -17  -4   10.48    6.01
   1 -17   4   -8.18    5.38
   1  17  -4   17.99    7.13
   1 -17   4   -6.06    6.27
   1 -17  -4    4.80    5.47
   1 -17  -4   -0.81    5.24
  -1 -17   4   -4.07    5.10
   1 -17  -4   -1.44    4.23
  -1 -17   4  -10.68    5.71
   1  17   4  -12.38    7.67
  -2  17   0   -1.06    8.04
   2  17   0    3.25    7.82
   2  17  -1    9.89    7.51
  -2  17   1   -2.19    8.46
  -2 -17  -1    3.71    4.28
   2 -17  -1    4.19    3.83
  -2  17  -1    8.09    7.71
   2  17   1   -5.46    7.99
   2 -17  -1    0.70    4.39
  -2 -17  -2    4.25    4.18
  -2 -17  -2    9.85    3.92
  -2 -17  -2   10.42    4.89
   2  17  -2   20.33    7.13
  -2  17   2   -8.12    8.04
  -2 -17   2    4.87    4.58
   2  17   2   -5.30    8.20
  -2  17  -2    6.80    7.38
   2 -17  -2    9.47    4.96
   2 -17  -2    4.40    4.78
   2 -17  -2   -0.15    4.02
   2  17  -3   11.02    6.72
  -2 -17  -3   15.36    5.09
  -2  17   3   -8.94    7.93
   2 -17   3   -6.04    4.96
  -2 -17  -3    9.10    4.19
  -2 -17  -3   10.61    4.96
   2  17   3  -13.05    7.55
   2 -17  -3    6.72    5.30
  -2 -17   3   -6.47    4.72
   2 -17  -3    3.41    5.21
   2 -17  -3    3.57    4.27
  -2  17  -3   18.20    7.40
  -2 -17  -4    6.74    5.27
   2  17  -4   18.90    6.97
  -2 -17  -4    8.36    5.64
  -2 -17  -4   14.15    4.41
   2  17  -4    1.57    6.64
  -2  17   4  -10.26    7.92
   2 -17   4   -1.59    5.34
   2 -17   4  -10.06    6.28
   2 -17  -4    6.30    5.54
   2  17   4  -13.08    7.52
  -2 -17   4    1.98    5.29
  -2 -17   4  -11.35    5.62
   2 -17  -4    5.43    5.48
   2 -17  -4    7.17    4.60
  -2 -17   4  -11.77    4.75
  -2  17  -4   11.95    6.91
   3  17   0    3.95    7.38
  -3  17   0    4.44    8.15
   3 -17   0   -0.46    4.18
   3  17  -1   13.31    7.42
  -3  17   1   -3.65    8.48
  -3 -17  -1    8.73    4.26
   3  17  -1   10.31    4.24
   3  17   1   -6.01    7.82
  -3  17  -1   10.63    7.66
   3 -17  -1    7.11    3.81
   3 -17  -1    6.77    4.62
  -3 -17  -2   12.38    4.09
  -3  17   2   -9.76    8.06
  -3 -17  -2   13.92    4.38
   3  17  -2   21.12    7.18
  -3 -17  -2   12.31    4.75
   3  17  -2    9.04    4.74
  -3  17  -2   11.84    7.48
   3 -17  -2    3.26    4.09
  -3 -17   2    2.36    4.51
   3  17   2   14.93    6.36
   3 -17  -2    1.31    4.87
   3  17  -3    5.79    4.65
  -3 -17  -3   19.50    4.95
  -3 -17  -3   10.54    4.67
   3 -17   3   -4.23    4.82
   3  17  -3   18.57    7.06
  -3 -17  -3   10.65    4.33
   3 -17  -3    3.56    5.11
  -3 -17   3    0.70    4.75
   3 -17  -3    5.07    5.39
  -3 -17   3    2.44    5.60
  -3  17  -3   20.72    7.46
   3 -17  -3   13.21    4.56
  -3 -17  -4   13.53    4.36
  -3  17   4   -8.37    7.97
   3  17  -4    7.93    4.88
   3  17  -4   17.17    6.36
  -3 -17  -4   20.31    5.78
  -3 -17  -4   13.15    5.37
   3 -17   4   -2.12    5.31
   3 -17   4  -11.54    7.74
  -3 -17   4    4.33    5.07
  -3  17  -4   13.62    6.98
  -3 -17   4   -0.22    4.86
   3 -17  -4    2.81    4.54
   3 -17  -4   -3.18    5.23
  -3 -17   4   -3.79    5.71
   3 -17  -4    3.79    5.49
   4 -17   0    6.41    4.60
  -4  17   0    6.89    8.51
   4  17   0   22.26    4.61
  -4  17   0   12.19    4.32
   4  17   0   18.12    7.64
   4  17  -1   18.41    7.33
  -4  17   1   -1.74    8.77
  -4 -17  -1   16.17    4.54
   4  17  -1   18.88    4.65
   4 -17  -1   12.80    4.22
   4 -17  -1    6.60    4.79
   4  17   1    5.73    8.03
  -4  17  -1   13.06    7.87
   4  17  -2   17.42    5.03
  -4 -17  -2   17.92    4.17
   4  17  -2   24.36    7.06
  -4 -17  -2   23.68    5.01
   4  17   2   15.81    4.87
  -4  17  -2   10.90    7.52
   4  17   2   -7.06    8.16
   4 -17  -2    8.77    5.01
   4 -17  -2   10.92    4.19
  -4 -17   2    8.13    4.52
   4  17  -3   18.34    6.32
  -4 -17  -3   10.83    4.81
   4  17  -3    7.21    4.80
  -4 -17  -3   17.54    5.17
  -4 -17  -3   18.76    4.30
  -4  17   3   -7.86    8.05
   4 -17   3   -9.18    4.58
   4 -17  -3    3.81    5.10
  -4 -17   3    3.41    5.51
   4 -17  -3    8.49    4.35
  -4  17  -3   21.63    7.44
  -4 -17   3   -0.08    4.71
   4  17   3   13.59    5.36
  -4 -17  -4   14.20    4.55
  -4  17   4   -7.64    8.18
  -4 -17  -4   14.36    5.42
  -4 -17  -4   15.85    5.88
   4  17  -4    4.18    5.01
   4 -17   4   -8.04    4.79
  -4 -17   4    5.56    5.28
   4 -17  -4    1.73    4.35
  -4 -17   4   -4.70    4.71
  -4 -17   4   -1.20    5.81
   4  17   4    8.89    7.53
  -4  17  -4   21.36    7.50
   4 -17  -4    5.15    5.35
   4 -17  -4    3.73    5.36
   5 -17   0    2.41    4.43
  -5  17   0    2.79    4.11
   5  17   0   15.49    7.19
  -5  17   0    4.19    8.49
   5  17   0   13.78    4.44
   5  17  -1   17.29    4.80
  -5 -17  -1    4.12    5.59
  -5  17   1  -10.19    8.31
   5  17   1   13.45    4.22
  -5  17  -1    3.32    5.12
   5 -17  -1    6.42    4.07
   5  17   1   -0.85    7.40
  -5 -17   1    5.46    5.25
  -5  17  -1   11.25    8.23
   5 -17  -1    1.60    4.85
  -5 -17  -2   10.40    4.71
  -5 -17  -2   10.35    4.30
  -5  17   2   -8.18    8.11
   5  17  -2   17.99    6.64
  -5 -17  -2    8.17    3.92
   5  17  -2   12.42    4.88
   5 -17  -2    9.64    4.50
   5  17   2   12.78    4.89
   5  17   2  -13.62    7.97
  -5  17  -2    9.40    7.77
   5 -17  -2    2.79    4.81
  -5 -17   2   -4.63    4.03
  -5 -17  -3   10.92    4.13
   5  17  -3   18.79    6.42
  -5 -17  -3   10.58    4.78
   5 -17   3   -3.37    4.84
   5  17  -3    8.29    4.98
  -5 -17  -3   17.69    5.32
  -5 -17   3   -2.51    4.30
  -5 -17   3    2.20    5.19
  -5  17  -3   17.66    7.02
   5  17   3   15.59    5.55
   5 -17  -3   -1.94    5.10
   5 -17  -3    7.45    4.28
  -5 -17  -4   15.45    4.54
  -5 -17  -4   18.51    5.51
   5  17  -4   22.14    5.99
  -5 -17  -4   14.77    5.96
   5  17  -4    5.00    5.15
  -5 -17   4   -4.82    5.71
   5 -17  -4    3.92    4.34
  -5 -17   4    5.15    4.91
   5  17   4    9.82    5.85
   5 -17  -4   -0.76    5.33
   6 -17   0    3.43    4.72
  -6  17   0    8.42    4.29
  -6  17   0   13.53    8.86
   6  17   0   22.90    7.33
   6  17  -1   29.14    6.76
   6  17  -1   26.12    5.35
  -6  17   1   18.46    4.95
  -6  17   1    5.33    8.99
   6 -17   1    8.34    5.86
  -6  17  -1   18.35    4.51
   6  17   1   14.93    7.67
  -6 -17   1   15.86    4.70
  -6  17  -1   14.48    8.37
   6  17   1   22.26    4.70
   6 -17  -1   10.62    5.25
   6  17  -2   24.35    6.49
  -6 -17  -2   18.93    4.38
  -6 -17  -2   21.61    5.10
   6  17  -2   15.45    5.15
  -6 -17   2    7.76    4.40
   6  17   2   25.39    5.65
  -6 -17   2   11.32    5.05
   6  17   2  -14.08    9.82
   6 -17  -2   14.96    4.61
  -6  17  -2   13.10    7.59
   6 -17  -2   10.05    5.32
  -6 -17  -3   17.02    5.33
   6  17  -3   18.62    6.06
  -6 -17  -3   16.45    4.60
   6  17  -3   13.28    5.28
  -6 -17  -3   19.42    5.62
   6 -17  -3    5.30    4.48
  -6 -17   3    3.12    5.39
   6  17   3   10.84    5.53
  -6 -17   3    8.54    4.75
  -6  17  -3   25.71    7.50
   6 -17  -3    3.02    5.20
   6  17  -4   23.26    6.51
   6  17  -4   18.16    5.71
  -6 -17  -4   18.80    5.92
  -6 -17  -4   15.41    6.36
  -6 -17   4   -0.57    4.83
   6  17   4   14.10    6.06
   6 -17  -4   12.80    4.84
   6 -17  -4    4.86    5.66
  -6 -17   4    8.88    6.02
  -6  17  -4   18.01    7.29
  -7  17   0    6.98    8.52
   7 -17   0   -2.36    4.77
  -7  17   0    2.94    4.32
  -7  17   1    2.80    4.37
  -7  17   1   -1.51    8.57
   7 -17   1   -3.95    4.59
   7  17  -1   17.01    5.07
  -7  17  -1    6.66    8.12
  -7  17  -1    2.06    4.20
   7  17   1   15.61    4.54
  -7 -17   1    5.71    4.03
   7 -17  -1    0.13    4.89
  -7 -17  -2   12.68    5.02
   7  17  -2   13.76    5.00
   7  17  -2   20.87    6.61
  -7 -17  -2   13.17    4.25
   7 -17  -2    2.90    5.17
  -7 -17   2   -2.61    4.85
  -7 -17   2    6.38    4.33
  -7  17  -2   12.88    7.81
   7  17   2   13.35    5.21
  -7 -17  -3   13.87    5.44
  -7 -17  -3    8.63    4.37
   7  17  -3   16.67    5.78
  -7 -17  -3   14.53    5.53
   7  17  -3    6.63    5.33
   7 -17  -3    0.25    5.46
   7  17   3   16.10    5.83
  -7 -17   3   -0.36    4.34
  -7 -17   3   -3.88    4.98
   7 -17  -3    3.09    4.45
   8 -17   0    5.38    5.18
  -8  17   0    0.98    8.57
  -8  17   0    6.12    4.45
   8 -17   1    5.07    4.89
   8  17  -1   21.43    5.43
  -8 -17  -1   15.51    4.42
   8  17  -1    5.98    4.20
  -8  17   1    8.91    4.88
  -8  17   1   -6.20    8.95
   8 -17  -1    6.07    5.31
  -8  17  -1   10.59    8.09
  -8 -17   1   16.79    4.21
  -8  17  -1   11.17    4.67
   8  17   1   23.43    5.07
  -8 -17  -2   15.61    5.40
   8  17  -2   17.99    5.26
  -8 -17  -2   21.43    5.30
  -8  17   2   -2.58    8.56
  -8  17   2    8.26    4.98
  -8 -17  -2   17.80    4.60
   8 -17  -2    4.66    5.55
  -8 -17   2   12.34    4.53
  -8 -17   2    3.47    5.02
   8  17   2   16.41    5.41
  -8  17  -2   13.06    7.74
   8  17  -3   18.49    5.87
  -8 -17  -3   26.04    6.31
  -8 -17  -3   14.45    4.58
  -8 -17  -3   20.58    5.85
  -8 -17   3    5.70    5.47
   8  17   3   16.59    6.20
  -8  17  -3   32.14    7.99
  -8 -17   3    8.30    4.81
   8 -17  -3    3.78    5.54
  -9  17   0   -3.30    8.18
  -9  17   0    1.04    4.48
   9 -17   0   -4.64    4.95
   9  17  -1   14.46    4.99
   9  17  -1   -0.30    3.93
  -9  17   1  -13.28    8.51
  -9  17   1    0.55    4.61
  -9  17  -1   -0.04    4.60
   9 -17  -1   -3.90    5.21
   9  17   1   15.93    4.87
  -9 -17   1   10.89    4.66
  -9  17  -1    6.28    7.95
   9  17  -2   14.07    5.19
  -9 -17  -2    8.16    4.36
  -9  17   2    5.30    5.04
  -9 -17   2    4.21    5.12
  -9  17  -2   17.68    8.09
  -9 -17   2   10.72    4.37
   9 -17  -2   -0.36    5.39
   9  17   2   10.98    5.45
 -10  17   0    3.66    8.64
  10 -17   0    3.38    5.54
 -10  17   0    4.16    4.87
 -10  17   1    4.74    4.97
  10  17  -1    6.52    4.26
 -10  17   1  -16.09    8.64
  10 -17  -1   -1.40    5.52
 -10 -17   1   12.84    5.01
 -10  17  -1   19.59    8.74
  10  17   1   16.93    4.95
   0  18   0   13.03    8.56
   0 -18  -1    1.70    4.46
   0  18   1   -4.48    8.64
   0  18  -1   17.46    8.37
   0  18   2   -6.49    8.59
   0  18  -2   21.78    7.84
   0 -18  -2   15.67    5.24
   0 -18  -2    6.31    5.03
   0 -18  -2    9.07    4.22
   0 -18  -3   14.81    4.85
   0 -18  -3   13.52    5.48
   0  18   3  -12.62    7.90
   0 -18   3   -0.53    5.41
   0 -18  -3    3.15    5.19
   0 -18  -4    6.78    5.99
   0 -18  -4    5.21    5.77
   0 -18   4   -6.66    5.67
   0 -18  -4    8.06    4.75
   0  18   4  -15.15    7.99
  -1  18   0    5.40    8.37
   1  18   0    2.17    8.07
  -1 -18  -1    5.15    4.65
  -1  18   1   -1.92    8.73
   1  18  -1   15.67    8.06
   1  18   1    0.14    8.80
   1 -18  -1    3.13    4.52
  -1  18  -1   15.52    8.34
   1  18  -2   14.59    7.15
  -1 -18  -2    3.99    4.83
  -1  18   2  -12.83    8.35
  -1 -18  -2    0.61    4.64
  -1 -18  -2    6.82    4.17
   1 -18  -2    4.75    4.83
  -1  18  -2   15.49    7.61
   1 -18  -2    8.50    4.16
   1 -18  -2    2.75    4.84
   1  18   2  -13.70    8.35
  -1 -18  -3    7.37    4.53
  -1 -18  -3    4.40    5.12
   1  18  -3   19.07    7.26
  -1 -18  -3    5.41    5.24
  -1  18   3   -8.25    7.93
   1 -18   3   -8.81    6.02
  -1  18  -3   22.07    7.69
   1 -18  -3    2.30    5.29
  -1 -18   3   -4.99    5.12
   1 -18  -3    8.28    4.55
   1  18   3  -14.85    7.91
   1 -18  -3    4.26    5.20
  -1 -18  -4   12.85    5.94
   1  18  -4   24.09    7.48
   1 -18   4   -4.88    5.80
  -1 -18  -4    6.60    5.98
  -1 -18  -4    6.79    4.67
  -1  18   4   -9.99    8.07
   1  18   4  -15.84    7.82
  -1 -18   4    0.33    6.90
   1 -18  -4    3.31    5.71
   1 -18  -4   -6.01    5.72
  -1 -18   4   -7.00    5.65
   1 -18  -4    6.65    4.85
  -1  18  -4   22.47    7.45
  -2  18   0    0.78    8.41
   2  18   0    8.45    7.98
   2  18  -1   20.88    8.15
  -2 -18  -1    3.84    5.46
  -2  18   1   -5.84    8.86
   2  18   1   -0.23    8.50
  -2  18  -1   12.64    8.33
   2 -18  -1    1.12    4.60
   2 -18  -1    5.27    4.03
  -2 -18  -2    7.92    5.00
  -2  18   2   -1.43    8.92
   2  18  -2   21.05    7.23
  -2 -18  -2   16.05    4.94
  -2 -18  -2   16.76    4.37
   2 -18  -2    3.89    4.92
  -2  18  -2   22.93    8.29
   2 -18  -2   11.43    4.26
   2 -18  -2   13.85    5.05
   2  18   2   -4.18    8.44
  -2 -18  -3   15.34    5.57
  -2 -18  -3   14.07    4.21
   2  18  -3   22.98    7.05
  -2 -18  -3   10.73    5.25
   2 -18  -3    5.68    5.37
  -2 -18   3   -2.66    5.07
   2 -18  -3    4.83    4.32
   2 -18  -3   12.55    5.58
  -2  18  -3   24.64    7.63
  -3  18   0   -1.18    8.34
   3  18   0   12.59    7.86
   3 -18   0   -3.21    6.01
  -3  18   1   -4.95    8.95
   3  18  -1   13.37    7.40
   3  18   1   -0.55    8.05
   3 -18  -1    3.02    4.44
  -3  18  -1    8.67    8.13
  -3 -18  -2    9.84    3.77
   3  18  -2   20.46    7.01
  -3 -18  -2   10.56    4.83
  -3  18   2   -9.30    8.46
  -3 -18  -2   12.48    4.44
   3 -18  -2    3.43    4.13
  -3  18  -2    6.45    7.24
   3 -18  -2    6.00    5.05
   3  18   2  -11.88    8.56
  -3 -18  -3   19.02    4.44
  -3 -18  -3   12.07    5.14
  -3 -18  -3   10.20    5.05
   3  18  -3   23.31    7.02
  -3  18   3   -7.34    8.29
   3 -18  -3   11.75    5.48
  -3 -18   3    1.41    5.07
   3 -18  -3    9.09    4.45
   3 -18  -3    6.23    5.31
  -3  18  -3   25.84    8.00
   4 -18   0   -1.91    4.72
  -4  18   0    0.16    8.41
  -4  18   0    6.52    4.22
   4  18   0   13.28    5.56
   4  18   0    9.98    7.47
  -4  18   1   -6.42    9.09
   4  18  -1   19.32    7.17
   4  18   1   -1.19    7.84
  -4  18  -1   13.45    8.36
   4 -18  -1    1.27    3.98
   4 -18  -1    2.21    4.74
   4  18  -2   15.55    5.06
  -4 -18  -2   14.29    4.79
  -4 -18  -2   14.74    4.36
  -4 -18  -2   15.05    4.08
   4  18  -2   19.50    6.73
   4 -18  -2    9.16    5.24
  -4  18  -2   15.30    7.93
   4  18   2  -10.22    8.52
   4 -18  -2    7.41    4.41
   4  18  -3   20.46    6.34
  -4 -18  -3   17.30    5.07
  -4 -18  -3   16.92    5.09
  -4 -18  -3   16.12    4.43
   4  18  -3    5.50    4.85
  -4 -18   3   -2.87    4.89
   4 -18  -3    4.99    4.41
  -4 -18   3    0.77    6.20
   4 -18  -3    5.30    5.37
   5  18   0   13.48    7.36
  -5  18   0    3.70    8.51
   5 -18   0   -1.54    4.60
  -5  18   0    2.87    4.11
   5  18  -1    8.75    4.39
  -5  18   1   -9.78    8.85
   5 -18  -1   -0.85    4.91
   5  18   1   12.39    4.39
   5  18   1   -2.50    7.51
  -5  18  -1    7.77    7.93
  -5 -18  -2    7.66    4.11
   5  18  -2   13.11    5.13
   5  18  -2   24.55    6.66
  -5 -18  -2   12.79    4.69
  -5  18   2   -9.97    8.58
  -5 -18  -2   15.19    4.52
   5  18   2   15.77    4.95
   5  18   2   -7.15    8.42
   5 -18  -2    3.19    4.38
  -5  18  -2   12.08    7.93
  -5 -18   2   -2.13    4.85
   5 -18  -2    6.34    5.27
  -5 -18  -3   11.54    4.20
   5  18  -3   21.91    6.55
   5  18  -3    9.06    5.14
  -5 -18  -3   14.21    5.02
  -5 -18  -3   20.08    5.31
  -5 -18   3   -2.97    5.57
   5 -18  -3    0.01    5.14
   5  18   3  -13.23    9.50
   5 -18  -3    1.53    4.36
  -5 -18   3   -3.45    4.90
  -6  18   0    1.97    8.44
   6  18   0   12.43    4.57
   6 -18   0   -1.05    4.58
  -6  18   0   -1.85    4.11
  -6  18   1   -7.70    8.89
  -6  18   1    3.69    4.48
   6  18  -1   15.78    4.83
   6  18   1   11.11    4.60
  -6  18  -1   19.50    8.54
   6  18  -2   13.29    5.01
   6  18  -2   21.39    6.43
  -6 -18  -2   12.61    5.25
  -6 -18  -2   13.26    4.19
  -6 -18   2    4.66    4.61
   6 -18  -2   -1.69    4.15
   6 -18  -2   -5.38    4.99
  -6  18  -2    6.89    7.38
   6  18   2   12.31    4.83
   6  18  -3   20.35    6.14
  -6  18  -3   22.71    7.36
  -7  18   0    4.40    4.51
   7 -18   0   -5.03    4.92
  -7  18   0    2.21    8.49
  -7  18   1    2.39    4.64
  -7  18   1  -14.58    8.52
   7 -18  -1   -5.03    4.78
  -7  18  -1    3.35    8.00
  -7  18   2   -9.06    8.79
  -7 -18  -2   10.78    4.38
   7  18  -2    9.71    5.15
  -7  18  -2    7.60    7.84
   7 -18  -2   -2.01    5.41
   7  18   2   19.00    5.20
  -7 -18   2   -8.42    6.09
  -7 -18   2    4.60    4.52
   8  18   0   11.97    4.85
   8 -18   0   -7.34    5.10
  -8  18   0   -0.02    4.38
  -8  18   0   -0.73    8.54
  -8  18   1  -17.86    8.76
   8  18  -1   10.46    4.87
  -8  18   1   -0.15    4.50
   8  18   1   18.35    5.01
  -8  18  -1   12.02    8.28
   0  19   0    4.27    8.28
   0  19   1  -14.34    8.38
   0  19  -1   15.13    8.40
   0 -19  -2   -6.39    4.68
   0 -19  -2    0.64    4.04
   0  19   2  -14.65    8.71
   0  19  -2   19.23    7.87
  -1  19   0    2.25    8.46
   1  19   0    4.22    8.03
  -1  19   1  -13.98    8.35
   1  19  -1   19.32    8.34
   1  19   1  -13.87    8.17
  -1  19  -1    2.88    7.75
   1 -19  -1    4.22    6.29
  -1 -19  -2   -0.58    4.79
   1  19  -2   25.37    7.56
  -1 -19  -2    6.40    4.14
  -1  19   2  -15.36    8.73
   1 -19  -2    2.89    4.96
   1  19   2   -8.51    9.10
   1 -19  -2    0.45    4.83
   1 -19  -2   -4.14    3.88
  -1  19  -2   14.57    7.63
  -2  19   0   -2.80    8.38
   2  19   0   12.20    8.08
   2  19  -1   19.60    8.07
  -2  19   1   -7.15    9.00
   2 -19  -1    4.27    4.76
  -2  19  -1   11.48    8.40
   2  19   1   -2.71    8.24
   2  19  -2   20.82    7.10
  -2 -19  -2   12.84    4.27
  -2 -19  -2   -2.32    4.81
  -2  19   2  -16.45    8.85
  -2 -19  -2    3.46    4.88
   2 -19  -2    6.83    4.38
  -2  19  -2   18.59    7.97
   2  19   2  -12.69    8.56
   2 -19  -2    2.71    4.90
   3  19   0    3.52    7.42
  -3  19   0    5.69    8.82
  -3  19   1    2.22    9.21
   3  19  -1   17.82    7.47
   3  19   1   -4.92    8.04
   3 -19  -1    2.37    4.67
  -3  19  -1    6.47    8.09
   3  19  -2   26.50    7.37
  -3 -19  -2    4.68    6.40
  -3 -19  -2    9.74    4.17
  -3  19   2  -13.79    8.91
  -3 -19  -2    8.25    5.13
   3 -19  -2    1.98    4.17
   3 -19  -2    5.78    5.03
  -3  19  -2   23.95    8.18
   4  19   0   16.17    7.63
  -4  19   0   -3.37    8.39
   4  19  -1   30.20    7.50
  -4  19   1   -8.51    8.93
  -4  19  -1   14.85    8.57
   4  19   1   -0.81    7.89
   4 -19  -1   -1.83    4.83
  -4 -19  -2   15.53    4.19
   4  19  -2   26.74    7.11
  -4  19  -2   21.78    8.60
   4  19   2  -14.03    8.68
   4 -19  -2    3.07    5.06
   4 -19  -2    3.25    4.59
  -5  19   0    3.62    8.35
   5  19   0   20.68    7.50
  -5  19   1   -8.35    9.27
   5 -19  -1    1.97    5.28
  -5  19  -1   11.77    8.20
   5  19   1    4.71    7.86
  -6  19   0    7.21    8.90
   6  19   0   20.84    5.02
  -6  19   1   -9.38    9.24
  -6  19  -1   17.34    8.45
   0  20   0    6.13    8.35
   1  20   0   12.14    8.34
  -1  20   0   10.16    8.97
   0   0   0    0.00    0.00
;
_shelx_hkl_checksum   66893

